###################################################################################################
#          Set Up & Source Definition									  
###################################################################################################
	wipe all;							# clear memory of past model definitions
	model BasicBuilder -ndm 2 -ndf 3;	# Define the model builder, ndm = #dimension, ndf = #dofs
	set dataDir resultsB1TestCyclic_Cravero2020;			# name of output folder
	file mkdir $dataDir;						# create output folder
	
	#source DisplayModel2D.tcl;
	#source DisplayPlane.tcl;

###################################################################################################
#          Define Section Properties and Elements													  
###################################################################################################
	
# define section
	set bf  264.0;										# total flange width
	set bf4MaterialLaw [expr $bf/ 2];
	set tf  22.20;										# flange thickness
	set d 427.0;										# section depth
	set rKArea 15.0;									# radius of K-Area
	set tw 13.30;										# web thickness
	set h [expr $d-2*$tf-2*$rKArea];					# Web PLATE depth for material law softening
	
	set bSurTFlange [expr $bf/(2*$tf)];
	set bSurTWeb [expr $h/$tw];
	
	set sigmaC0_Web [expr 1.2*385.0];
	set sigmaC0_Flange [expr 1.0*510.0];
	
	set alphaRegularization_Web 1.0;							# Factor for regularization web 
	set alphaRegularization_Flange 1.0;							# Factor for regularization flange
	
###################################################################################################
#          Define Subassembly Geometry									  
###################################################################################################

# define structure-geometry parameters
	set L 1825.0;      # Lenght of the column [mm]
	
###################################################################################################
#          Define Subassembly Geometry									  
###################################################################################################
	
# set up geometric transformation of elements
	set ColTransfTag 1; 			# associate a tag to column transformation
	set BeamTransfTag 2; 			# associate a tag to beam transformation
	#geomTransf Linear $ColTransfTag 0 0 -1;		# Linear transformation
	geomTransf Corotational $ColTransfTag;		# Corotational transformation
	geomTransf Linear $BeamTransfTag;		# Linear transformation
	
###################################################################################################
#          Define Nodes & Boundary Conditions							  
###################################################################################################

# define nodes and assign masses to beam-column intersections of frame
	# command:  node nodeID xcoord ycoord 
	node 1 0.0 0.0;
	node 2 0.0 $L;
	node 3 0.0 $L;
	node 4  -791.0 $L;
	node 5 0.0 [expr $L+306.0];
	
# Pin constraints for same nodes
	equalDOF 3 2 1 2 3; 
	
# assign boundary conditions 
	# command:  fix nodeID dxFixity dyFixity rzFixity
	# fixity values: 1 = constrained; 0 = unconstrained
	fix 1 1 1 1 ;
	
###################################################################################################
#          Define Beam-Column Elements							  
###################################################################################################

# define fiber beam-column elements
	
	set E 191020.;
	
	uniaxialMaterial SLModel 1 $bSurTWeb 200000	325	4200	19	68.1	14.1	399.6239468	0.013177381	-4330.730313	-543.4140712	249.1375486	0.042523865	0.021305349	0.830214959	1.; # Updated model

	
	set NFlange_LoadingDir 1;
	set NFlange_TranverseDir 4;
	set NWeb_LoadingDir 10;
	set NWeb_TranverseDir 1;	
	
	section Fiber 1 {;	
	#			 matTag  umSubdivY  numSubdivZ  yI  	zI  	yJ    zJ
	patch rect 1 $NFlange_LoadingDir $NFlange_TranverseDir [expr -$d/2]               [expr -$bf/2]                    [expr -($d/2-$tf)]             [expr $bf/2];	#Bottom flange
	patch rect 1 $NWeb_LoadingDir $NWeb_TranverseDir            [expr -($d/2-$tf)] [expr -$tw/2] [expr ($d/2-$tf)] [expr $tw/2];									#Web
	patch rect 1 $NFlange_LoadingDir $NFlange_TranverseDir [expr ($d/2-$tf)]             [expr -$bf/2]                    [expr $d/2]             [expr $bf/2];		#Top flange

	}

	
	#set integration "NewtonCotes 1 5"
	#element  forceBeamColumn 12 1 2 $ColTransfTag $integration -iter 30 1e-6
	#set lc [expr 2.5*$bf];
	#element gradientForceBeamColumn 12 1 2 $ColTransfTag Simpson 1 11  20 1e-6 $lc
	
	set lc [expr 0.0*$bf];
	element testNonlocalElementDH 12 1 2 $ColTransfTag Simpson 1 11  50 1e-6 $lc
	#element gradientForceBeamColumn 12 1 2 $ColTransfTag Simpson 1 11  50 1e-6 $lc
	#element testNonlocalElementDH 12 1 2 $ColTransfTag NewtonCotes 1 5  50 1e-6 $lc
	
	
	element elasticBeamColumn 34 3 4 11500 [expr $E*1000.0] 44500000 $BeamTransfTag 
	element elasticBeamColumn 35 3 5 11500 [expr $E*1000.0] 44500000 $ColTransfTag 
	
############################################################################
#              Recorders					                			   
############################################################################

puts "Recorders ..."

#lc20bfLcSurDx4
# Record displacements 
	recorder Node -file $dataDir/B1TestCyclic_Cravero2020_lc0bfIP11_Disp.txt -node 2 -dof 1 2 disp;
	
# Record reactions
	recorder Node -file $dataDir/B1TestCyclic_Cravero2020_lc0bfIP11_RBase.txt -node 1 -dof 1 2 3 reaction;
	
# Record stress and strains for fibers
#recorder Element -file $dataDir/B1TestCyclic_Cravero2020_lc0bfIP5_testElem_stressFiberY202Z33.txt -ele 12 section 1 fiber 202.40 33.00 stress; 
#recorder Element -file $dataDir/B1TestCyclic_Cravero2020_lc0bfIP5_testElem_strainFiberY202Z33.txt -ele 12 section 1 fiber 202.40 33.00 strain; 
#recorder Element -file $dataDir/B1TestCyclic_Cravero2020_lc0bfIP5_testElem_stressFiberY172Z0.txt -ele 12 section 1 fiber 172.17 0.00 stress; 
#recorder Element -file $dataDir/B1TestCyclic_Cravero2020_lc0bfIP5_testElem_strainFiberY172Z0.txt -ele 12 section 1 fiber 172.17 0.00 strain; 
#recorder Element -file $dataDir/B1TestCyclic_Cravero2020_lc0bfIP5_testElem_stressFiberY134Z0.txt -ele 12 section 1 fiber 133.91 0.00 stress; 
#recorder Element -file $dataDir/B1TestCyclic_Cravero2020_lc0bfIP5_testElem_strainFiberY134Z0.txt -ele 12 section 1 fiber 133.91 0.00 strain; 
#recorder Element -file $dataDir/B1TestCyclic_Cravero2020_lc0bfIP5_testElem_stressFiberY96Z0.txt -ele 12 section 1 fiber 95.65 0.00 stress; 
#recorder Element -file $dataDir/B1TestCyclic_Cravero2020_lc0bfIP5_testElem_strainFiberY96Z0.txt -ele 12 section 1 fiber 95.65 0.00 strain; 
#recorder Element -file $dataDir/B1TestCyclic_Cravero2020_lc0bfIP5_testElem_stressFiberY57Z0.txt -ele 12 section 1 fiber 57.39 0.00 stress; 
#recorder Element -file $dataDir/B1TestCyclic_Cravero2020_lc0bfIP5_testElem_strainFiberY57Z0.txt -ele 12 section 1 fiber 57.39 0.00 strain; 
#recorder Element -file $dataDir/B1TestCyclic_Cravero2020_lc0bfIP5_testElem_stressFiberY19Z0.txt -ele 12 section 1 fiber 19.13 0.00 stress; 
#recorder Element -file $dataDir/B1TestCyclic_Cravero2020_lc0bfIP5_testElem_strainFiberY19Z0.txt -ele 12 section 1 fiber 19.13 0.00 strain; 
#recorder Element -file $dataDir/B1TestCyclic_Cravero2020_lc0bfIP5_testElem_stressFiberY-19Z0.txt -ele 12 section 1 fiber -19.13 0.00 stress; 
#recorder Element -file $dataDir/B1TestCyclic_Cravero2020_lc0bfIP5_testElem_strainFiberY-19Z0.txt -ele 12 section 1 fiber -19.13 0.00 strain; 
#recorder Element -file $dataDir/B1TestCyclic_Cravero2020_lc0bfIP5_testElem_stressFiberY-57Z0.txt -ele 12 section 1 fiber -57.39 0.00 stress; 
#recorder Element -file $dataDir/B1TestCyclic_Cravero2020_lc0bfIP5_testElem_strainFiberY-57Z0.txt -ele 12 section 1 fiber -57.39 0.00 strain; 
#recorder Element -file $dataDir/B1TestCyclic_Cravero2020_lc0bfIP5_testElem_stressFiberY-96Z0.txt -ele 12 section 1 fiber -95.65 0.00 stress; 
#recorder Element -file $dataDir/B1TestCyclic_Cravero2020_lc0bfIP5_testElem_strainFiberY-96Z0.txt -ele 12 section 1 fiber -95.65 0.00 strain; 
#recorder Element -file $dataDir/B1TestCyclic_Cravero2020_lc0bfIP5_testElem_stressFiberY-134Z0.txt -ele 12 section 1 fiber -133.91 0.00 stress; 
#recorder Element -file $dataDir/B1TestCyclic_Cravero2020_lc0bfIP5_testElem_strainFiberY-134Z0.txt -ele 12 section 1 fiber -133.91 0.00 strain; 
#recorder Element -file $dataDir/B1TestCyclic_Cravero2020_lc0bfIP5_testElem_stressFiberY-172Z0.txt -ele 12 section 1 fiber -172.17 0.00 stress; 
#recorder Element -file $dataDir/B1TestCyclic_Cravero2020_lc0bfIP5_testElem_strainFiberY-172Z0.txt -ele 12 section 1 fiber -172.17 0.00 strain; 
#recorder Element -file $dataDir/B1TestCyclic_Cravero2020_lc0bfIP5_testElem_stressFiberY-202Z33.txt -ele 12 section 1 fiber -202.40 33.00 stress; 
#recorder Element -file $dataDir/B1TestCyclic_Cravero2020_lc0bfIP5_testElem_strainFiberY-202Z33.txt -ele 12 section 1 fiber -202.40 33.00 strain; 


# Define display;	
#DisplayModel2D NodeNumbers 2.8 10 10  1200 800 -wipe;
#DisplayPlane "DeformedShape" 2.8 XY 0;

	
#######################################################################################
#                                                                                     #
#                              Analysis Section			                          #
#                                                                                     #
#######################################################################################

# Start timer
set startT [clock seconds]


# define GRAVITY -------------------------------------------------------------
pattern Plain 1 Linear {
   load 5 0 -1800000 0 

}

# Gravity-analysis parameters -- load-controlled static analysis
set Tol 1.0e-6;			# convergence tolerance for test
constraints Plain;     		# how it handles boundary conditions
numberer Plain;			# renumber dof's to minimize band-width (optimization), if you want to
system  BandGeneral;		# how to store and solve the system of equations in the analysis
test RelativeNormUnbalance $Tol 20 0; 		# determine if convergence has been achieved at the end of an iteration step
algorithm Newton;			# use Newton's solution algorithm: updates tangent stiffness at every iteration
set NstepGravity 10;  		# apply gravity in 1 steps
set DGravity [expr 1./$NstepGravity]; 	# first load increment;
integrator LoadControl $DGravity;	# determine the next time step for an analysis
analysis Static;			# define type of analysis static or transient
analyze $NstepGravity;		# apply gravity
# ------------------------------------------------- maintain constant gravity loads and reset time to zero
loadConst -time 0.0

puts "Model Built"




# STATIC PUSHOVER ANALYSIS-----------------------------------------------------------------------------

puts "Running Analysis..."

# assign lateral loads and create load pattern
  set CtrlNode 4
  set CtrlDOF 1;
  pattern Plain 200 Linear {			
	 load 4 1.0 0.0 0.0;
  }
  
# analysis commands
	constraints Plain;					# how it handles boundary conditions
	numberer RCM;						# renumber dof's to minimize band-width (optimization)
	system BandGeneral;					# how to store and solve the system of equations in the analysis (large model: try UmfPack)
	#system UmfPack
	set maxNumIter 25;                # Convergence Test: maximum number of iterations that will be performed before "failure to converge" is returned
	set printFlag 0;                # Convergence Test: flag used to print information on convergence (optional)        # 1: print information on each step;
	set Tol 1.0e-8;                        # Convergence Test: tolerance	
	#test RelativeNormUnbalance  $Tol $maxNumIter $printFlag;		# type of convergence criteria with tolerance, max iterations
	test EnergyIncr  $Tol $maxNumIter $printFlag;
	#algorithm NewtonLineSearch;					# use Newton's solution algorithm: updates tangent stiffness at every iteration
	#algorithm KrylovNewton 

#Monotonic Run
  set disp [list 0. 0	1.139800549	2.279201984	3.418204308	4.556807518	5.695011616	6.832817078	7.970224857	9.107236862	10.2438612	11.38014126	12.51619148	13.65220833	14.78798103	15.9234848	17.0587101	18.1936512	19.32829857	20.46264458	21.59669685	22.73044395	23.86388016	24.997015	26.12983894	27.26235008	28.39454842	29.52643204	30.65800285	31.78926277	32.92021179	34.0508461	35.18116379	36.31116486	3
	#test several hardening cycles then push to softening
	#set disp [list 0. 0	0.536764705882353	1.07352941176471	1.61029411764706	2.14705882352941	2.68382352941176	3.22058823529412	3.75735294117647	4.29411764705882	4.83088235294118	5.36764705882353	5.90441176470588	6.44117647058824	6.97794117647059	7.51470588235294	8.05147058823529	8.58823529411765	9.12500000000000	8.60357142857143	8.08214285714286	7.56071428571429	7.03928571428572	6.51785714285714	5.9
    #test several hardening cycles then longer push to softening
	#set disp [list 0. 0	0.760416666666667	1.52083333333333	2.28125000000000	3.04166666666667	3.80208333333333	4.56250000000000	5.32291666666667	6.08333333333333	6.84375000000000	7.60416666666667	8.36458333333333	9.12500000000000	8.39500000000000	7.66500000000000	6.93500000000000	6.20500000000000	5.47500000000000	4.74500000000000	4.01500000000000	3.28500000000000	2.55500000000000	1.82500000000000	1.0

  set LoopLength [llength $disp]
  set h 1 
  
# Run the static cyclic analysis
  set NSteps 1;
  set dU1 0;
  set ok 0;
  
  puts "Analysis..."
  set tStart [clock seconds];
  while {$ok == 0 && $h < $LoopLength} {
	# List is zero index
	set index [expr $h]
	# We need to relative deformation of the loading protocol
	# Subtract dUi+1 - dUi
	set D1 [lindex $disp $index];
	set D2 [lindex $disp $index-1];
	#set dU1 [expr ($D1-$D2)*$L];
	set dU1 [expr ($D1-$D2)];
	
	# Create Nsteps from Amplitude to Amplitude
	set dU [expr ($dU1)/$NSteps]
	
	# Displacement Control Integrator
	integrator DisplacementControl $CtrlNode $CtrlDOF $dU
	analysis Static
     puts "increment = [expr {$h}] / [expr {$LoopLength}]";

	set ok [ analyze $NSteps]
	set h [expr $h + 1 ]
} 	
set tFinish [clock seconds];

puts "Duration Process: [expr $tFinish - $tStart]"; 

	

wipe all;