###################################################################################################
#          Set Up & Source Definition									  
###################################################################################################
	wipe all;							# clear memory of past model definitions
	model BasicBuilder -ndm 2 -ndf 3;	# Define the model builder, ndm = #dimension, ndf = #dofs
	set dataDir results;			# name of output folder
	file mkdir $dataDir;						# create output folder

	#source DisplayModel2D.tcl;
	#source DisplayPlane.tcl;

###################################################################################################
#          Define Section Properties and Elements													  
###################################################################################################
	
# define HSS column element section HSS300x10
	set DHSS  254;										# HSS depth
	set tPlate 9.5;										# plate width
	set rExtHSS [expr 2.5 * $tPlate];						# HSS corner external radius
	set rIntHSS [expr 1.5 * $tPlate];						# HSS corner internal radius
	set bPlate [expr $DHSS - 2 * $rExtHSS];
	set bSurTPlate [expr $bPlate / $tPlate];				# b/t HSS plate	
	set DSurTHSS [expr $DHSS /$tPlate];
	set sigmaC0 378.0;									    # Initial capping stress sigmaC0
	#set sigmaC0 3780.0;
	#set alphaRegularization 0.32;							# Factor for regularization
	set alphaRegularization 1.0;	
	
###################################################################################################
#          Define Subassembly Geometry									  
###################################################################################################

# define structure-geometry parameters
	set L 1525.0;      # Lenght of the column [mm]
	
###################################################################################################
#          Define Subassembly Geometry									  
###################################################################################################
	
# set up geometric transformation of elements
	set ColTransfTag 1; 			# associate a tag to column transformation
	set BeamTransfTag 2; 			# associate a tag to beam transformation
	geomTransf Corotational $ColTransfTag;		# Corotational transformation
	#geomTransf PDelta $ColTransfTag;		# PDelta transformation
	geomTransf Linear $BeamTransfTag;		# Linear transformation
	
###################################################################################################
#          Define Nodes & Boundary Conditions							  
###################################################################################################

# define nodes and assign masses to beam-column intersections of frame
	# command:  node nodeID xcoord ycoord 
	node 1 0.0 0.0;
	node 2 0.0 $L;
	node 3 0.0 $L;
	node 4  -791.0 $L;
	node 5 0.0 [expr $L+306.0];
	
# Pin constraints for same nodes
	equalDOF 3 2 1 2 3; 
	
# assign boundary conditions 
	# command:  fix nodeID dxFixity dyFixity rzFixity
	# fixity values: 1 = constrained; 0 = unconstrained
	fix 1 1 1 1 ;
	
###################################################################################################
#          Define Beam-Column Elements							  
###################################################################################################

# define fiber beam-column elements
	set E 200000.;
	
	#A500 Gr.B steel material parameters from Suzuki and Lignos 2020
	#uniaxialMaterial SLModel 1 $DSurTHSS 200000. 315. 2500. 19.	22.4 7.2 382.8466982 0.008812135 -2822.487499 -516.0389276 234.4971188 0.061026586 0.027610273 0.665413237	1.; # Updated model
	#uniaxialMaterial LocalBucklingWebPlateUniaxial 1 200000.0 0.3 324.09 228.02 0.11 50.41 270.40 2 17707 207.18 1526.2 6.22 $bPlate $tPlate $sigmaC0 $alphaRegularization;
	uniaxialMaterial CFSTsteel 1 200000.00  286.87  24.08   0.84    0.0223 [expr 1.1*-382.8466982]    13.110 -105.461 3.36923 11 2.00749  4   3.86987 2.45962 1   1   1   1   1   2   11934.29 160.01 1585.62 7.71 ;
	#uniaxialMaterial CFSTsteel 1 200000.00  321.68  36.64   0.94    0.00989 -337.969    14.99491 -109.061 2.46999 11 1.77624  4   2.167914 2.25468 1   1   1   1   1   1   3995.53 24.59  ;
	#uniaxialMaterial CFSTsteel 1 200000.00  321.68  36.64   0.94    0.00989 -382.8466982    14.99491 -109.061 2.46999 11 1.77624  4   2.167914 2.25468 1   1   1   1   1   1   3995.53 24.59  ;

	
	set NWeb_LoadDir 10;
	set NWeb_TranverseDir 1;
	set NFlange_LoadDir 1;
	set NFlange_TranverseDir 1;
	set NCorner_Circ 1; 
	set NCorner_Rad 1; 
	
	set absCoordCenterCorner [expr $DHSS/2 - $rExtHSS];
	set zC1 [expr $absCoordCenterCorner];
	set yC1 [expr $absCoordCenterCorner];
	set zC2 [expr -$absCoordCenterCorner];
	set yC2 [expr $absCoordCenterCorner];
	set zC3 [expr -$absCoordCenterCorner];
	set yC3 [expr -$absCoordCenterCorner];
	set zC4 [expr $absCoordCenterCorner];
	set yC4 [expr -$absCoordCenterCorner];
	
	set yIW1 [expr -($DHSS/2 - $rExtHSS)];
	set zIW1 [expr -$DHSS/2];
	set yJW1 [expr ($DHSS/2 - $rExtHSS)];
	set zJW1 [expr -($DHSS/2 - $tPlate)];
	
	set yIW2 [expr -($DHSS/2 - $rExtHSS)];
	set zIW2 [expr ($DHSS/2 - $tPlate)];
	set yJW2 [expr ($DHSS/2 - $rExtHSS)];
	set zJW2 [expr $DHSS/2];
	
	set yIF1 [expr $DHSS/2 - $tPlate];
	set zIF1 [expr -($DHSS/2 - $rExtHSS)];
	set yJF1 [expr $DHSS/2];
	set zJF1 [expr ($DHSS/2 - $rExtHSS)];
	
	set yIF2 [expr -$DHSS/2];
	set zIF2 [expr -($DHSS/2 - $rExtHSS)];
	set yJF2 [expr -($DHSS/2 - $tPlate)];
	set zJF2 [expr ($DHSS/2 - $rExtHSS)];
	
	
	section Fiber 1 {;
	#			matID  numSubdivCirc  numSubdivRad  yCenter  zCenter  intRad  extRad  startAng  endAng
	patch circ 1 1 1 $yC1 $zC1 $rIntHSS $rExtHSS 0 90;
	patch circ 1 1 1 $yC2 $zC2 $rIntHSS $rExtHSS 270 360;
	patch circ 1 1 1 $yC3 $zC3 $rIntHSS $rExtHSS 180 270;
	patch circ 1 1 1 $yC4 $zC4 $rIntHSS $rExtHSS 90 180;
	
	#			 matTag  umSubdivY  numSubdivZ  yI  	zI  	yJ    zJ
	patch rect 1 1 $NFlange_TranverseDir $yIF1 $zIF1 $yJF1 $zJF1;
	patch rect 1 1 $NFlange_TranverseDir $yIF2 $zIF2 $yJF2 $zJF2;
	
	patch rect 1 $NWeb_LoadDir 1 $yIW1 $zIW1 $yJW1 $zJW1;
	patch rect 1 $NWeb_LoadDir 1 $yIW2 $zIW2 $yJW2 $zJW2;
	}

	
	#set integration "NewtonCotes 1 8"
	#element  forceBeamColumn 12 1 2 $ColTransfTag $integration -iter 10 1e-6
	
	set lc [expr 1.0*$DHSS];
	element testNonlocalElementDH 12 1 2 $ColTransfTag Simpson 1 15  5000 1e-8 $lc
	#element gradientForceBeamColumn 12 1 2 $ColTransfTag Simpson 1 9  20 1e-6 $lc
	
	element elasticBeamColumn 34 3 4 11500 [expr $E*1000.0] 44500000 $BeamTransfTag 
	element elasticBeamColumn 35 3 5 11500 [expr $E*1000.0] 44500000 $BeamTransfTag 
	
############################################################################
#              Recorders					                			   
############################################################################

puts "Recorders ..."

# Record displacements 
	recorder Node -file $dataDir/H27C2C30_Suzuki2021_lc10DIP27_Disp.txt -node 2 -dof 1 2 disp;
	
# Record reactions
	recorder Node -file $dataDir/H27C2C30_Suzuki2021_lc10DIP27_RBase.txt -node 1 -dof 1 2 3 reaction;
	
# Record local section deformations
   #recorder Element -file $dataDir/H27C2C30_Suzuki2021_lc10DIP27_curvatureLoc.txt -ele 12 LocalSectionCurvature;
	
# Record stress and strains for the external fibers in the flanges
#recorder Element -file $dataDir/H27C2C30_Suzuki2021_lc10DIP27_stressFiberY-117Z117.txt -ele 12 section 1 fiber -116.69 116.69 stress; 
#recorder Element -file $dataDir/H27C2C30_Suzuki2021_lc10DIP27_strainFiberY-117Z117.txt -ele 12 section 1 fiber -116.69 116.69 strain; 
#recorder Element -file $dataDir/H27C2C30_Suzuki2021_lc10DIP27_stressFiberY-93Z122.txt -ele 12 section 1 fiber -92.92 122.25 stress; 
#recorder Element -file $dataDir/H27C2C30_Suzuki2021_lc10DIP27_strainFiberY-93Z122.txt -ele 12 section 1 fiber -92.92 122.25 strain; 
#recorder Element -file $dataDir/H27C2C30_Suzuki2021_lc10DIP27_stressFiberY-72Z122.txt -ele 12 section 1 fiber -72.28 122.25 stress; 
#recorder Element -file $dataDir/H27C2C30_Suzuki2021_lc10DIP27_strainFiberY-72Z122.txt -ele 12 section 1 fiber -72.28 122.25 strain; 
#recorder Element -file $dataDir/H27C2C30_Suzuki2021_lc10DIP27_stressFiberY-52Z122.txt -ele 12 section 1 fiber -51.63 122.25 stress; 
#recorder Element -file $dataDir/H27C2C30_Suzuki2021_lc10DIP27_strainFiberY-52Z122.txt -ele 12 section 1 fiber -51.63 122.25 strain; 
#recorder Element -file $dataDir/H27C2C30_Suzuki2021_lc10DIP27_stressFiberY-31Z122.txt -ele 12 section 1 fiber -30.98 122.25 stress; 
#recorder Element -file $dataDir/H27C2C30_Suzuki2021_lc10DIP27_strainFiberY-31Z122.txt -ele 12 section 1 fiber -30.98 122.25 strain; 
#recorder Element -file $dataDir/H27C2C30_Suzuki2021_lc10DIP27_stressFiberY-10Z122.txt -ele 12 section 1 fiber -10.33 122.25 stress; 
#recorder Element -file $dataDir/H27C2C30_Suzuki2021_lc10DIP27_strainFiberY-10Z122.txt -ele 12 section 1 fiber -10.33 122.25 strain; 
#recorder Element -file $dataDir/H27C2C30_Suzuki2021_lc10DIP27_stressFiberY10Z122.txt -ele 12 section 1 fiber 10.33 122.25 stress; 
#recorder Element -file $dataDir/H27C2C30_Suzuki2021_lc10DIP27_strainFiberY10Z122.txt -ele 12 section 1 fiber 10.33 122.25 strain; 
#recorder Element -file $dataDir/H27C2C30_Suzuki2021_lc10DIP27_stressFiberY31Z122.txt -ele 12 section 1 fiber 30.97 122.25 stress; 
#recorder Element -file $dataDir/H27C2C30_Suzuki2021_lc10DIP27_strainFiberY31Z122.txt -ele 12 section 1 fiber 30.97 122.25 strain; 
#recorder Element -file $dataDir/H27C2C30_Suzuki2021_lc10DIP27_stressFiberY52Z122.txt -ele 12 section 1 fiber 51.62 122.25 stress; 
#recorder Element -file $dataDir/H27C2C30_Suzuki2021_lc10DIP27_strainFiberY52Z122.txt -ele 12 section 1 fiber 51.62 122.25 strain; 
#recorder Element -file $dataDir/H27C2C30_Suzuki2021_lc10DIP27_stressFiberY72Z122.txt -ele 12 section 1 fiber 72.27 122.25 stress; 
#recorder Element -file $dataDir/H27C2C30_Suzuki2021_lc10DIP27_strainFiberY72Z122.txt -ele 12 section 1 fiber 72.27 122.25 strain; 
#recorder Element -file $dataDir/H27C2C30_Suzuki2021_lc10DIP27_stressFiberY93Z122.txt -ele 12 section 1 fiber 92.92 122.25 stress; 
#recorder Element -file $dataDir/H27C2C30_Suzuki2021_lc10DIP27_strainFiberY93Z122.txt -ele 12 section 1 fiber 92.92 122.25 strain; 
#recorder Element -file $dataDir/H27C2C30_Suzuki2021_lc10DIP27_stressFiberY117Z117.txt -ele 12 section 1 fiber 116.69 116.69 stress; 
#recorder Element -file $dataDir/H27C2C30_Suzuki2021_lc10DIP27_strainFiberY117Z117.txt -ele 12 section 1 fiber 116.69 116.69 strain; 
#recorder Element -file $dataDir/H27C2C30_Suzuki2021_lc10DIP27_stressFiberY122Z77.txt -ele 12 section 1 fiber 122.25 77.44 stress; 
#recorder Element -file $dataDir/H27C2C30_Suzuki2021_lc10DIP27_strainFiberY122Z77.txt -ele 12 section 1 fiber 122.25 77.44 strain; 
#recorder Element -file $dataDir/H27C2C30_Suzuki2021_lc10DIP27_stressFiberY-122Z77.txt -ele 12 section 1 fiber -122.25 77.44 stress; 
#recorder Element -file $dataDir/H27C2C30_Suzuki2021_lc10DIP27_strainFiberY-122Z77.txt -ele 12 section 1 fiber -122.25 77.44 strain; 
	
	
# Define display;	
#DisplayModel2D NodeNumbers 2.8 10 10  1200 800 -wipe;
#DisplayPlane "DeformedShape" 2.8 XY 0;
	
#######################################################################################
#                                                                                     #
#                              Analysis Section			                          #
#                                                                                     #
#######################################################################################

# Start timer
set startT [clock seconds]

# define GRAVITY -------------------------------------------------------------
pattern Plain 1 Linear {
	#load 5 0 -1005500 0
	load 5 0 -800000 0 

}

# Gravity-analysis parameters -- load-controlled static analysis
set Tol 1.0e-10;			# convergence tolerance for test
constraints Plain;     		# how it handles boundary conditions
numberer Plain;			# renumber dof's to minimize band-width (optimization), if you want to
system  BandGeneral;		# how to store and solve the system of equations in the analysis
test RelativeNormUnbalance $Tol 20 2; 		# determine if convergence has been achieved at the end of an iteration step
algorithm Newton;			# use Newton's solution algorithm: updates tangent stiffness at every iteration
set NstepGravity 10;  		# apply gravity in 1 steps
set DGravity [expr 1./$NstepGravity]; 	# first load increment;
integrator LoadControl $DGravity;	# determine the next time step for an analysis
analysis Static;			# define type of analysis static or transient
analyze $NstepGravity;		# apply gravity
# ------------------------------------------------- maintain constant gravity loads and reset time to zero
loadConst -time 0.0

puts "Model Built"




# STATIC PUSHOVER ANALYSIS-----------------------------------------------------------------------------

puts "Running Analysis..."

# assign lateral loads and create load pattern
  set CtrlNode 4
  set CtrlDOF 1;
  pattern Plain 200 Linear {			
	 load 4 1.0 0.0 0.0;
  }
  
# analysis commands
	constraints Plain;					# how it handles boundary conditions
	numberer RCM;						# renumber dof's to minimize band-width (optimization)
	system BandGeneral;					# how to store and solve the system of equations in the analysis (large model: try UmfPack)
	set currentTolerance 1.0e-10
	test EnergyIncr $currentTolerance 100;		# type of convergence criteria with tolerance, max iterations
	algorithm KrylovNewton;					# use Newton's solution algorithm: updates tangent stiffness at every iteration
	#algorithm NewtonLineSearch;
	#algorithm SecantNewton

#monotonic run
#set disp [list  0. 0	6.92E-07	1.39E-06	2.10E-06	2.81E-06	3.52E-06	4.25E-06	4.98E-06	5.71E-06	6.46E-06	7.21E-06	7.21E-06	1.249472618	2.497869492	3.745201826	4.991491318	6.236748695	7.481184959	8.724986076	9.968033791	11.21030808	12.45179558	13.69248676	14.93233967	16.17137337	17.40960121	18.64703369	19.88366127	21.11951828	22.35461235	23.58897591	24.8226738	26.05581093	27.28843689	28.52049828	29.7
#LPC1CSuzuki2021
#set disp [list 0.0 0	1.26E-12	2.27E-12	3.07E-12	2.15E-12	3.68E-12	7.07E-13	2.70E-12	3.61E-12	2.21E-12	2.86E-12	2.86E-12	-0.418080747	-0.832291722	-1.246619463	-1.661064148	-2.07562542	-2.490303755	-2.905098677	-3.320010662	-3.735039234	-4.150184631	-4.5654459	-4.980823994	-5.396317005	-5.81192255	-6.227636814	-6.643456459	-7.059381008	-7.475409508	-7.891536713	-8.307736397	-8.723978996	-9.1402969
#LPC2CSuzuki2021
set disp [list 0. 0. 0.084052823	0.169312298	0.255802721	0.343549073	0.432576984	0.5229128	0.614583671	0.707617223	0.802042246	0.897887945	0.897887945	-0.325699568	-0.755135775	-1.184697509	-1.61438477	-2.044197559	-2.474136114	-2.904200077	-3.334389687	-3.764704943	-4.195145607	-4.625711918	-5.056402206	-5.487215996	-5.918153286	-6.349214554	-6.780396461	-7.211701393	-7.643127441	-8.074671745	-8.
#LPSCSuzuki2021
#set disp [list 0.0 0	0.084052823	0.169312298	0.255802721	0.343549073	0.432576984	0.5229128	0.614583671	0.707617223	0.802042246	0.897887945	0.897887945	-0.275250703	-0.650464118	-1.025773406	-1.401178479	-1.776679397	-2.152276278	-2.527968884	-2.903757572	-3.279642105	-3.655622482	-4.031698704	-4.407871246	-4.78413868	-5.160500526	-4.810237408	-4.460057259	-4.109960556	-3.759946585	-3.410015821	-3


  set LoopLength [llength $disp]
  set h 1 
  
# Run the static cyclic analysis
  set NSteps 1;
  set dU1 0;
  set ok 0;
  
  puts "Analysis..."
  set tStart [clock seconds];
  while {$ok == 0 && $h < $LoopLength} {
	# List is zero index
	set index [expr $h]
	# We need to relative deformation of the loading protocol
	# Subtract dUi+1 - dUi
	set D1 [lindex $disp $index];
	set D2 [lindex $disp $index-1];
	#set dU1 [expr ($D1-$D2)*$L];
	set dU1 [expr ($D1-$D2)];
	
	# Create Nsteps from Amplitude to Amplitude
	set dU [expr ($dU1)/$NSteps]
	
	# Displacement Control Integrator
	integrator DisplacementControl $CtrlNode $CtrlDOF $dU
	analysis Static
     puts "increment = [expr {$h}] / [expr {$LoopLength}]";

	set ok [ analyze $NSteps]
	
	 if {$ok != 0} {
	 puts "loop 1 to update tol"
     eval "test EnergyIncr [expr $currentTolerance*1000] 100 0"
	 algorithm NewtonLineSearch Bisection 0.75;
	 set ok [analyze [expr $NSteps/1]]
 }
 
 	 if {$ok != 0} {
	 puts "loop 2  to update tol"
     eval "test NormDispIncr [expr $currentTolerance*10000] 100 0"
	 algorithm NewtonLineSearch -type Bisection 0.75;
	 set ok [analyze [expr $NSteps/1]]
 }
 
 if {$ok != 0} {
	 puts "loop 3  to update tol"
     eval "test NormDispIncr [expr $currentTolerance*10000000000] 200 0"
	 algorithm NewtonLineSearch;
	 set ok [analyze [expr $NSteps/1]]
 }
 
 test EnergyIncr $currentTolerance 100;
 algorithm KrylovNewton;
 
	set h [expr $h + 1 ]
}	
set tFinish [clock seconds];

puts "Duration Process: [expr $tFinish - $tStart]"; 

	

wipe all;