###################################################################################################
#          Set Up & Source Definition									  
###################################################################################################
	wipe all;							# clear memory of past model definitions
	model BasicBuilder -ndm 3 -ndf 6;	# Define the model builder, ndm = #dimension, ndf = #dofs
	set dataDir resultsHSS300x12;			# name of output folder
	file mkdir $dataDir;						# create output folder

###################################################################################################
#          Define Section Properties and Elements													  
###################################################################################################
	
# define HSS column element section HSS300x20
	set bPlate  300.0;										# HSS depth
	set tPlate 12.0;										# plate width
	set rExtHSS [expr 3.0 * $tPlate];						# HSS corner external radius
	set rIntHSS [expr 2.0 * $tPlate];						# HSS corner internal radius
	set bSurTPlate [expr $bPlate / $tPlate];				# b/t HSS plate
	set bHSS4MaterialLaw [expr $bPlate - 2 * $rExtHSS]
	set sigmaC0 456.5299;									    # Initial capping stress sigmaC0
	set alphaRegularization 1.0;							# Factor for regularization
	
###################################################################################################
#          Define Subassembly Geometry									  
###################################################################################################

# define structure-geometry parameters
	set L 1525.0;      # Lenght of the column [mm]
	
###################################################################################################
#          Define Subassembly Geometry									  
###################################################################################################
	
# set up geometric transformation of elements
	set ColTransfTag 1; 			# associate a tag to column transformation
	#eomTransf Linear $ColTransfTag 0 1 0;		# Linear transformation
	geomTransf Corotational $ColTransfTag 0 0 -1;		# Corotational transformation
	#geomTransf PDelta $ColTransfTag 0 0 1;		# Pdelta transformation
	
###################################################################################################
#          Define Nodes & Boundary Conditions							  
###################################################################################################

# define nodes and assign masses to beam-column intersections of frame
	# command:  node nodeID xcoord ycoord 
	node 1 0.0 0.0 0.0;
	node 2 $L 0.0 0.0;
	
# assign boundary conditions 
	# command:  fix nodeID dxFixity dyFixity rzFixity
	# fixity values: 1 = constrained; 0 = unconstrained
	fix 1 1 1 1 1 1 1;
	fix 2 0 0 0 0 0 0;
	
###################################################################################################
#          Define Beam-Column Elements							  
###################################################################################################

# define fiber beam-column elements
	set E 200000.;
	set nu 0.3; 
	
	#Torsion part
	set G 	[expr $E/2.0/(1+$nu)]; # shear modulus
	set do 	[expr $bPlate-$tPlate]; 			# median depth
	set J   [expr $do**3*$tPlate]; 		# torsional constant   
	set GJ 	[expr $G*$J];  			# torsional stiffness 
	
	#nDMaterial ElasticIsotropic 1 $E $nu
	#nDMaterial LocalBucklingWebPlate 1 200000.0 0.3 370.0 0.0 1.0 0.0 1.0 1 3512.0 30.0 $bHSS4MaterialLaw $tPlate $sigmaC0 $alphaRegularization;
	nDMaterial LocalBucklingWebPlate 1 191020.0 0.3 373.72 141.47 15.2 135.95 211.16 2 25621 235.12 942.18 3.16 $bHSS4MaterialLaw $tPlate $sigmaC0 $alphaRegularization;

	
	set NWeb_LoadDir 10;
	set NWeb_TranverseDir 1;
	set NFlange_LoadDir 1;
	set NFlange_TranverseDir 10;
	set NCorner_Circ 1; 
	set NCorner_Rad 1; 
	
	set absCoordCenterCorner [expr $bPlate/2 - $rExtHSS];
	set zC1 [expr $absCoordCenterCorner];
	set yC1 [expr $absCoordCenterCorner];
	set zC2 [expr -$absCoordCenterCorner];
	set yC2 [expr $absCoordCenterCorner];
	set zC3 [expr -$absCoordCenterCorner];
	set yC3 [expr -$absCoordCenterCorner];
	set zC4 [expr $absCoordCenterCorner];
	set yC4 [expr -$absCoordCenterCorner];
	
	set yIW1 [expr -($bPlate/2 - $rExtHSS)];
	set zIW1 [expr -$bPlate/2];
	set yJW1 [expr ($bPlate/2 - $rExtHSS)];
	set zJW1 [expr -$bPlate/2];
	set yKW1 [expr ($bPlate/2 - $rExtHSS)];
	set zKW1 [expr -($bPlate/2 - $tPlate)];
	set yLW1 [expr -($bPlate/2 - $rExtHSS)];
	set zLW1 [expr -($bPlate/2 - $tPlate)];
	
	set yIW2 [expr -($bPlate/2 - $rExtHSS)];
	set zIW2 [expr ($bPlate/2 - $tPlate)];
	set yJW2 [expr ($bPlate/2 - $rExtHSS)];
	set zJW2 [expr ($bPlate/2 - $tPlate)];
	set yKW2 [expr ($bPlate/2 - $rExtHSS)];
	set zKW2 [expr $bPlate/2];
	set yLW2 [expr -($bPlate/2 - $rExtHSS)];
	set zLW2 [expr $bPlate/2];
	
	set yIF1 [expr $bPlate/2 - $tPlate];
	set zIF1 [expr -($bPlate/2 - $rExtHSS)];
	set yJF1 [expr $bPlate/2];
	set zJF1 [expr -($bPlate/2 - $rExtHSS)];
	set yKF1 [expr $bPlate/2];
	set zKF1 [expr ($bPlate/2 - $rExtHSS)];
	set yLF1 [expr $bPlate/2 - $tPlate];
	set zLF1 [expr ($bPlate/2 - $rExtHSS)];
	
	set yIF2 [expr -$bPlate/2];
	set zIF2 [expr -($bPlate/2 - $rExtHSS)];
	set yJF2 [expr -($bPlate/2 - $tPlate)];
	set zJF2 [expr -($bPlate/2 - $rExtHSS)];
	set yKF2 [expr -($bPlate/2 - $tPlate)];
	set zKF2 [expr ($bPlate/2 - $rExtHSS)];
	set yLF2 [expr -$bPlate/2];
	set zLF2 [expr ($bPlate/2 - $rExtHSS)];
	
	#Rotation by 45 degree
	set cos45 [expr 1/sqrt(2)];
	set sin45 [expr 1/sqrt(2)];
	
	set zC1rot45 [expr $yC1*$sin45 + $zC1*$cos45];
	set yC1rot45 [expr $yC1*$cos45 - $zC1*$sin45];
	set zC2rot45 [expr $yC2*$sin45 + $zC2*$cos45];
	set yC2rot45 [expr $yC2*$cos45 - $zC2*$sin45];
	set zC3rot45 [expr $yC3*$sin45 + $zC3*$cos45];
	set yC3rot45 [expr $yC3*$cos45 - $zC3*$sin45];
	set zC4rot45 [expr $yC4*$sin45 + $zC4*$cos45];
	set yC4rot45 [expr $yC4*$cos45 - $zC4*$sin45];
	
	set zIW1rot45 [expr $yIW1*$sin45 + $zIW1*$cos45];
	set yIW1rot45 [expr $yIW1*$cos45 - $zIW1*$sin45];
	set zJW1rot45 [expr $yJW1*$sin45 + $zJW1*$cos45];
	set yJW1rot45 [expr $yJW1*$cos45 - $zJW1*$sin45];
	set zKW1rot45 [expr $yKW1*$sin45 + $zKW1*$cos45];
	set yKW1rot45 [expr $yKW1*$cos45 - $zKW1*$sin45];
	set zLW1rot45 [expr $yLW1*$sin45 + $zLW1*$cos45];
	set yLW1rot45 [expr $yLW1*$cos45 - $zLW1*$sin45];
	
	set zIW2rot45 [expr $yIW2*$sin45 + $zIW2*$cos45];
	set yIW2rot45 [expr $yIW2*$cos45 - $zIW2*$sin45];
	set zJW2rot45 [expr $yJW2*$sin45 + $zJW2*$cos45];
	set yJW2rot45 [expr $yJW2*$cos45 - $zJW2*$sin45];
	set zKW2rot45 [expr $yKW2*$sin45 + $zKW2*$cos45];
	set yKW2rot45 [expr $yKW2*$cos45 - $zKW2*$sin45];
	set zLW2rot45 [expr $yLW2*$sin45 + $zLW2*$cos45];
	set yLW2rot45 [expr $yLW2*$cos45 - $zLW2*$sin45];
	
	set zIF1rot45 [expr $yIF1*$sin45 + $zIF1*$cos45];
	set yIF1rot45 [expr $yIF1*$cos45 - $zIF1*$sin45];
	set zJF1rot45 [expr $yJF1*$sin45 + $zJF1*$cos45];
	set yJF1rot45 [expr $yJF1*$cos45 - $zJF1*$sin45];
	set zKF1rot45 [expr $yKF1*$sin45 + $zKF1*$cos45];
	set yKF1rot45 [expr $yKF1*$cos45 - $zKF1*$sin45];
	set zLF1rot45 [expr $yLF1*$sin45 + $zLF1*$cos45];
	set yLF1rot45 [expr $yLF1*$cos45 - $zLF1*$sin45];
	
	set zIF2rot45 [expr $yIF2*$sin45 + $zIF2*$cos45];
	set yIF2rot45 [expr $yIF2*$cos45 - $zIF2*$sin45];
	set zJF2rot45 [expr $yJF2*$sin45 + $zJF2*$cos45];
	set yJF2rot45 [expr $yJF2*$cos45 - $zJF2*$sin45];
	set zKF2rot45 [expr $yKF2*$sin45 + $zKF2*$cos45];
	set yKF2rot45 [expr $yKF2*$cos45 - $zKF2*$sin45];
	set zLF2rot45 [expr $yLF2*$sin45 + $zLF2*$cos45];
	set yLF2rot45 [expr $yLF2*$cos45 - $zLF2*$sin45];
	
	
	section NDFiber 1 -GJ $GJ {;
	#			matID  numSubdivCirc  numSubdivRad  yCenter  zCenter  intRad  extRad  startAng  endAng
	patch circ 1 1 1 $yC1rot45 $zC1rot45 $rIntHSS $rExtHSS 45 135;
	patch circ 1 1 1 $yC2rot45 $zC2rot45 $rIntHSS $rExtHSS 315 405;
	patch circ 1 1 1 $yC3rot45 $zC3rot45 $rIntHSS $rExtHSS 225 315;
	patch circ 1 1 1 $yC4rot45 $zC4rot45 $rIntHSS $rExtHSS 135 225;
	
	#			 matTag  umSubdivY  numSubdivZ  yI  	zI  	yJ    zJ
	patch quad 1 $NFlange_LoadDir $NFlange_TranverseDir $yIF1rot45 $zIF1rot45 $yJF1rot45 $zJF1rot45 $yKF1rot45 $zKF1rot45 $yLF1rot45 $zLF1rot45;
	patch quad 1 $NFlange_LoadDir $NFlange_TranverseDir $yIF2rot45 $zIF2rot45 $yJF2rot45 $zJF2rot45 $yKF2rot45 $zKF2rot45 $yLF2rot45 $zLF2rot45;
	
	patch quad 1 $NWeb_LoadDir $NWeb_TranverseDir $yIW1rot45 $zIW1rot45 $yJW1rot45 $zJW1rot45 $yKW1rot45 $zKW1rot45 $yLW1rot45 $zLW1rot45;
	patch quad 1 $NWeb_LoadDir $NWeb_TranverseDir $yIW2rot45 $zIW2rot45 $yJW2rot45 $zJW2rot45 $yKW2rot45 $zKW2rot45 $yLW2rot45 $zLW2rot45;
	}

	set lc [expr 0.0*$bPlate];
	#set integration "NewtonCotes 1 5"
	#element  forceBeamColumn 12 1 2 $ColTransfTag $integration -iter 20 1e-6
	element gradientForceBeamColumn 12 1 2 $ColTransfTag NewtonCotesUpdated 1 5  20 1e-6 $lc
	
############################################################################
#              Recorders					                			   
############################################################################

puts "Recorders ..."

# Record displacements 
	recorder Node -file $dataDir/HSS300x12_45deg_Monotonic_NoAxialLoad_nonlocal5IpLc0D_Disp.txt -node 2 -dof 1 2 disp;
	
# Record reactions
	recorder Node -file $dataDir/HSS300x12_45deg_Monotonic_NoAxialLoad_nonlocal5IpLc0D_RBase.txt -node 1 -dof 1 2 6 reaction;
	
# Record stress and strains for the external fibers in the flanges
	recorder Element -file $dataDir/HSS300x12_45deg_Monotonic_NoAxialLoad_nonlocal5IpLc0D_stressFiberLayerPos7.txt -ele 12 section 1 fiber 144 -85.5 1 stress;
	recorder Element -file $dataDir/HSS300x12_45deg_Monotonic_NoAxialLoad_nonlocal5IpLc0D_strainFiberLayerPos7.txt -ele 12 section 1 fiber 144 -85.5 1 strain;
	
	#recorder Element -file $dataDir/HSS300x12_45deg_Monotonic_NoAxialLoad_nonlocal5IpLc0D_stressFiberLayerPos6.txt -ele 12 section 1 fiber 135.2 -135.2 1 stress;
	#recorder Element -file $dataDir/HSS300x12_45deg_Monotonic_NoAxialLoad_nonlocal5IpLc0D_strainFiberLayerPos6.txt -ele 12 section 1 fiber 135.2 -135.2 1 strain;
	
	#recorder Element -file $dataDir/HSS300x12_45deg_Monotonic_NoAxialLoad_nonlocal5IpLc0D_stressFiberLayerPos5.txt -ele 12 section 1 fiber 102.6 -144 1 stress;
	#recorder Element -file $dataDir/HSS300x12_45deg_Monotonic_NoAxialLoad_nonlocal5IpLc0D_strainFiberLayerPos5.txt -ele 12 section 1 fiber 102.6 -144 1 strain;
	
	#recorder Element -file $dataDir/HSS300x12_45deg_Monotonic_NoAxialLoad_nonlocal5IpLc0D_stressFiberLayerPos4.txt -ele 12 section 1 fiber 79.8 -144 1 stress;
	#recorder Element -file $dataDir/HSS300x12_45deg_Monotonic_NoAxialLoad_nonlocal5IpLc0D_strainFiberLayerPos4.txt -ele 12 section 1 fiber 79.8 -144 1 strain;
	
	#recorder Element -file $dataDir/HSS300x12_45deg_Monotonic_NoAxialLoad_nonlocal5IpLc0D_stressFiberLayerPos3.txt -ele 12 section 1 fiber 57 -144 1 stress;
	#recorder Element -file $dataDir/HSS300x12_45deg_Monotonic_NoAxialLoad_nonlocal5IpLc0D_strainFiberLayerPos3.txt -ele 12 section 1 fiber 57 -144 1 strain;
	
	#recorder Element -file $dataDir/HSS300x12_45deg_Monotonic_NoAxialLoad_nonlocal5IpLc0D_stressFiberLayerPos2.txt -ele 12 section 1 fiber 34.2 -144 1 stress;
	#recorder Element -file $dataDir/HSS300x12_45deg_Monotonic_NoAxialLoad_nonlocal5IpLc0D_strainFiberLayerPos2.txt -ele 12 section 1 fiber 34.2 -144 1 strain;
	
	#recorder Element -file $dataDir/HSS300x12_45deg_Monotonic_NoAxialLoad_nonlocal5IpLc0D_stressFiberLayerPos1.txt -ele 12 section 1 fiber 11.4 -144 1 stress;
	#recorder Element -file $dataDir/HSS300x12_45deg_Monotonic_NoAxialLoad_nonlocal5IpLc0D_strainFiberLayerPos1.txt -ele 12 section 1 fiber 11.4 -144 1 strain;
	
	
	recorder Element -file $dataDir/HSS300x12_45deg_Monotonic_NoAxialLoad_nonlocal5IpLc0D_stressFiberLayerNeg7.txt -ele 12 section 1 fiber -144 -85.5 1 stress;
	recorder Element -file $dataDir/HSS300x12_45deg_Monotonic_NoAxialLoad_nonlocal5IpLc0D_strainFiberLayerNeg7.txt -ele 12 section 1 fiber -144 -85.5 1 strain;
	
	#recorder Element -file $dataDir/HSS300x12_45deg_Monotonic_NoAxialLoad_nonlocal5IpLc0D_stressFiberLayerNeg6.txt -ele 12 section 1 fiber -135.2 -135.2 1 stress;
	#recorder Element -file $dataDir/HSS300x12_45deg_Monotonic_NoAxialLoad_nonlocal5IpLc0D_strainFiberLayerNeg6.txt -ele 12 section 1 fiber -135.2 -135.2 1 strain;
	
	#recorder Element -file $dataDir/HSS300x12_45deg_Monotonic_NoAxialLoad_nonlocal5IpLc0D_stressFiberLayerNeg5.txt -ele 12 section 1 fiber -102.6 144 1 stress;
	#recorder Element -file $dataDir/HSS300x12_45deg_Monotonic_NoAxialLoad_nonlocal5IpLc0D_strainFiberLayerNeg5.txt -ele 12 section 1 fiber -102.6 144 1 strain;
	
	#recorder Element -file $dataDir/HSS300x12_45deg_Monotonic_NoAxialLoad_nonlocal5IpLc0D_stressFiberLayerNeg4.txt -ele 12 section 1 fiber -79.8 144 1 stress;
	#recorder Element -file $dataDir/HSS300x12_45deg_Monotonic_NoAxialLoad_nonlocal5IpLc0D_strainFiberLayerNeg4.txt -ele 12 section 1 fiber -79.8 144 1 strain;
	
	#recorder Element -file $dataDir/HSS300x12_45deg_Monotonic_NoAxialLoad_nonlocal5IpLc0D_stressFiberLayerNeg3.txt -ele 12 section 1 fiber -57 144 1 stress;
	#recorder Element -file $dataDir/HSS300x12_45deg_Monotonic_NoAxialLoad_nonlocal5IpLc0D_strainFiberLayerNeg3.txt -ele 12 section 1 fiber -57 144 1 strain;
	
	#recorder Element -file $dataDir/HSS300x12_45deg_Monotonic_NoAxialLoad_nonlocal5IpLc0D_stressFiberLayerNeg2.txt -ele 12 section 1 fiber -34.2 144 1 stress;
	#recorder Element -file $dataDir/HSS300x12_45deg_Monotonic_NoAxialLoad_nonlocal5IpLc0D_strainFiberLayerNeg2.txt -ele 12 section 1 fiber -34.2 144 1 strain;
	
	#recorder Element -file $dataDir/HSS300x12_45deg_Monotonic_NoAxialLoad_nonlocal5IpLc0D_stressFiberLayerNeg1.txt -ele 12 section 1 fiber -11.4 144 1 stress;
	#recorder Element -file $dataDir/HSS300x12_45deg_Monotonic_NoAxialLoad_nonlocal5IpLc0D_strainFiberLayerNeg1.txt -ele 12 section 1 fiber -11.4 144 1 strain;

	
	
#######################################################################################
#                                                                                     #
#                              Analysis Section			                          #
#                                                                                     #
#######################################################################################

# Start timer
set startT [clock seconds]

# define GRAVITY -------------------------------------------------------------
#No gravity loading

puts "Model Built"




# STATIC PUSHOVER ANALYSIS-----------------------------------------------------------------------------

puts "Running Analysis..."

# assign lateral loads and create load pattern
  set CtrlNode 2
  set CtrlDOF 2;
  pattern Plain 200 Linear {			
	 load $CtrlNode 0.0 1.0 0.0 0.0 0.0 0.0;
  }
  
# analysis commands
	constraints Plain;					# how it handles boundary conditions
	numberer RCM;						# renumber dof's to minimize band-width (optimization)
	system UmfPack;					# how to store and solve the system of equations in the analysis (large model: try UmfPack)
	test EnergyIncr 1.0e-8 5000;		# type of convergence criteria with tolerance, max iterations
	algorithm KrylovNewton;					# use Newton's solution algorithm: updates tangent stiffness at every iteration

  #Monotonic Run
  #set disp [list 0. 0	1.25	2.5	3.75	5	6.25	7.5	8.75	10	11.25	12.5	13.75	15	16.25	17.5	18.75	20	21.25	22.5	23.75	25	26.25	27.5	28.75	30	31.25	32.5	33.75	35	36.25	37.5	38.75	40	41.25	42.5	43.75	45	46.25	47.5	48.75	50	51.25	52.5	53.75	55	56.25	57.5	58.75	60	61.25	62.5	63.75	65	66.25	67.5	68.75	70	71.25	72.5	73.75	75	76.25	77.5	78.75	80	81.25	82.5	83.75	85	86.25	87.5	88.75	90	91.25	92.5	93.75	95	96.2
set disp [list 0 0.1 0.2 0.3 0.4 0.5 0.6 0.7 0.8 0.9 1.0]

  set LoopLength [llength $disp]
  set h 1 
  
# Run the static cyclic analysis
  set NSteps 1;
  set dU1 0;
  set ok 0;
  
  puts "Analysis..."
  set tStart [clock seconds];
  while {$ok == 0 && $h < $LoopLength} {
	# List is zero index
	set index [expr $h]
	# We need to relative deformation of the loading protocol
	# Subtract dUi+1 - dUi
	set D1 [lindex $disp $index];
	set D2 [lindex $disp $index-1];
	#set dU1 [expr ($D1-$D2)*$L];
	set dU1 [expr ($D1-$D2)];
	
	# Create Nsteps from Amplitude to Amplitude
	set dU [expr ($dU1)/$NSteps]
	
	# Displacement Control Integrator
	integrator DisplacementControl $CtrlNode $CtrlDOF $dU
	analysis Static
     puts "increment = [expr {$h}] / [expr {$LoopLength}]";

	set ok [ analyze $NSteps]
	set h [expr $h + 1 ]
} 	
set tFinish [clock seconds];
puts "Duration Process: [expr $tFinish - $tStart]"; 

	

wipe all;