###################################################################################################
#          Set Up & Source Definition									  
###################################################################################################
	wipe all;							# clear memory of past model definitions
	model BasicBuilder -ndm 3 -ndf 6;	# Define the model builder, ndm = #dimension, ndf = #dofs
	set dataDir resultsHSS300x12_CyclicLPs;			# name of output folder
	file mkdir $dataDir;						# create output folder

###################################################################################################
#          Define Section Properties and Elements													  
###################################################################################################
	
# define HSS column element section HSS300x20
	set bPlate  300.0;										# HSS depth
	set tPlate 12.0;										# plate width
	set rExtHSS [expr 3.0 * $tPlate];						# HSS corner external radius
	set rIntHSS [expr 2.0 * $tPlate];						# HSS corner internal radius
	set bSurTPlate [expr $bPlate / $tPlate];				# b/t HSS plate
	set bHSS4MaterialLaw [expr $bPlate - 2 * $rExtHSS]
	set sigmaC0 456.5299;									    # Initial capping stress sigmaC0
	set alphaRegularization 1.0;							# Factor for regularization
	
###################################################################################################
#          Define Subassembly Geometry									  
###################################################################################################

# define structure-geometry parameters
	set L 1525.0;      # Lenght of the column [mm]
	
###################################################################################################
#          Define Subassembly Geometry									  
###################################################################################################
	
# set up geometric transformation of elements
	set ColTransfTag 1; 			# associate a tag to column transformation
	#eomTransf Linear $ColTransfTag 0 1 0;		# Linear transformation
	geomTransf Corotational $ColTransfTag 0 0 -1;		# Corotational transformation
	#geomTransf PDelta $ColTransfTag 0 0 1;		# Pdelta transformation
	
###################################################################################################
#          Define Nodes & Boundary Conditions							  
###################################################################################################

# define nodes and assign masses to beam-column intersections of frame
	# command:  node nodeID xcoord ycoord 
	node 1 0.0 0.0 0.0;
	node 2 $L 0.0 0.0;
	
# assign boundary conditions 
	# command:  fix nodeID dxFixity dyFixity rzFixity
	# fixity values: 1 = constrained; 0 = unconstrained
	fix 1 1 1 1 1 1 1;
	fix 2 0 0 0 0 0 0;
	
###################################################################################################
#          Define Beam-Column Elements							  
###################################################################################################

# define fiber beam-column elements
	set E 200000.;
	set nu 0.3; 
	
	#Torsion part
	set G 	[expr $E/2.0/(1+$nu)]; # shear modulus
	set do 	[expr $bPlate-$tPlate]; 			# median depth
	set J   [expr $do**3*$tPlate]; 		# torsional constant   
	set GJ 	[expr $G*$J];  			# torsional stiffness 
	
	#nDMaterial ElasticIsotropic 1 $E $nu
	#nDMaterial LocalBucklingWebPlate 1 200000.0 0.3 370.0 0.0 1.0 0.0 1.0 1 3512.0 30.0 $bHSS4MaterialLaw $tPlate $sigmaC0 $alphaRegularization;
	nDMaterial LocalBucklingWebPlate 1 191020.0 0.3 373.72 141.47 15.2 135.95 211.16 2 25621 235.12 942.18 3.16 $bHSS4MaterialLaw $tPlate $sigmaC0 $alphaRegularization;

	
	set NWeb_LoadDir 10;
	set NWeb_TranverseDir 1;
	set NFlange_LoadDir 1;
	set NFlange_TranverseDir 4;
	set NCorner_Circ 1; 
	set NCorner_Rad 1; 
	
	set absCoordCenterCorner [expr $bPlate/2 - $rExtHSS];
	set zC1 [expr $absCoordCenterCorner];
	set yC1 [expr $absCoordCenterCorner];
	set zC2 [expr -$absCoordCenterCorner];
	set yC2 [expr $absCoordCenterCorner];
	set zC3 [expr -$absCoordCenterCorner];
	set yC3 [expr -$absCoordCenterCorner];
	set zC4 [expr $absCoordCenterCorner];
	set yC4 [expr -$absCoordCenterCorner];
	
	set yIW1 [expr -($bPlate/2 - $rExtHSS)];
	set zIW1 [expr -$bPlate/2];
	set yJW1 [expr ($bPlate/2 - $rExtHSS)];
	set zJW1 [expr -($bPlate/2 - $tPlate)];
	
	set yIW2 [expr -($bPlate/2 - $rExtHSS)];
	set zIW2 [expr ($bPlate/2 - $tPlate)];
	set yJW2 [expr ($bPlate/2 - $rExtHSS)];
	set zJW2 [expr $bPlate/2];
	
	set yIF1 [expr $bPlate/2 - $tPlate];
	set zIF1 [expr -($bPlate/2 - $rExtHSS)];
	set yJF1 [expr $bPlate/2];
	set zJF1 [expr ($bPlate/2 - $rExtHSS)];
	
	set yIF2 [expr -$bPlate/2];
	set zIF2 [expr -($bPlate/2 - $rExtHSS)];
	set yJF2 [expr -($bPlate/2 - $tPlate)];
	set zJF2 [expr ($bPlate/2 - $rExtHSS)];
	
	
	section NDFiber 1 -GJ $GJ {;
	#			matID  numSubdivCirc  numSubdivRad  yCenter  zCenter  intRad  extRad  startAng  endAng
	patch circ 1 1 1 $yC1 $zC1 $rIntHSS $rExtHSS 0 90;
	patch circ 1 1 1 $yC2 $zC2 $rIntHSS $rExtHSS 270 360;
	patch circ 1 1 1 $yC3 $zC3 $rIntHSS $rExtHSS 180 270;
	patch circ 1 1 1 $yC4 $zC4 $rIntHSS $rExtHSS 90 180;
	
	#			 matTag  umSubdivY  numSubdivZ  yI  	zI  	yJ    zJ
	patch rect 1 1 4 $yIF1 $zIF1 $yJF1 $zJF1;
	patch rect 1 1 4 $yIF2 $zIF2 $yJF2 $zJF2;
	
	patch rect 1 10 1 $yIW1 $zIW1 $yJW1 $zJW1;
	patch rect 1 10 1 $yIW2 $zIW2 $yJW2 $zJW2;
	}

	
	set integration "NewtonCotes 1 5"
	element  forceBeamColumn 12 1 2 $ColTransfTag $integration -iter 20 1e-6
	
############################################################################
#              Recorders					                			   
############################################################################

puts "Recorders ..."

# Record displacements 
	recorder Node -file $dataDir/HSS300x12_PushoverCyclic_LPC2CSuzuki_NoAxialLoad_Disp.txt -node 2 -dof 1 2 disp;
	
# Record reactions
	recorder Node -file $dataDir/HSS300x12_PushoverCyclic_LPC2CSuzuki_NoAxialLoad_RBase.txt -node 1 -dof 1 2 6 reaction;
	
# Record stress and strains for the external fibers in the flanges
	recorder Element -file $dataDir/HSS300x12_PushoverCyclic_LPC2CSuzuki_NoAxialLoad_stressFiberLayerPos7.txt -ele 12 section 1 fiber 144 -85.5 1 stress;
	recorder Element -file $dataDir/HSS300x12_PushoverCyclic_LPC2CSuzuki_NoAxialLoad_strainFiberLayerPos7.txt -ele 12 section 1 fiber 144 -85.5 1 strain;
	
	recorder Element -file $dataDir/HSS300x12_PushoverCyclic_LPC2CSuzuki_NoAxialLoad_stressFiberLayerPos6.txt -ele 12 section 1 fiber 135.2 -135.2 1 stress;
	recorder Element -file $dataDir/HSS300x12_PushoverCyclic_LPC2CSuzuki_NoAxialLoad_strainFiberLayerPos6.txt -ele 12 section 1 fiber 135.2 -135.2 1 strain;
	
	recorder Element -file $dataDir/HSS300x12_PushoverCyclic_LPC2CSuzuki_NoAxialLoad_stressFiberLayerPos5.txt -ele 12 section 1 fiber 102.6 -144 1 stress;
	recorder Element -file $dataDir/HSS300x12_PushoverCyclic_LPC2CSuzuki_NoAxialLoad_strainFiberLayerPos5.txt -ele 12 section 1 fiber 102.6 -144 1 strain;
	
	recorder Element -file $dataDir/HSS300x12_PushoverCyclic_LPC2CSuzuki_NoAxialLoad_stressFiberLayerPos4.txt -ele 12 section 1 fiber 79.8 -144 1 stress;
	recorder Element -file $dataDir/HSS300x12_PushoverCyclic_LPC2CSuzuki_NoAxialLoad_strainFiberLayerPos4.txt -ele 12 section 1 fiber 79.8 -144 1 strain;
	
	recorder Element -file $dataDir/HSS300x12_PushoverCyclic_LPC2CSuzuki_NoAxialLoad_stressFiberLayerPos3.txt -ele 12 section 1 fiber 57 -144 1 stress;
	recorder Element -file $dataDir/HSS300x12_PushoverCyclic_LPC2CSuzuki_NoAxialLoad_strainFiberLayerPos3.txt -ele 12 section 1 fiber 57 -144 1 strain;
	
	recorder Element -file $dataDir/HSS300x12_PushoverCyclic_LPC2CSuzuki_NoAxialLoad_stressFiberLayerPos2.txt -ele 12 section 1 fiber 34.2 -144 1 stress;
	recorder Element -file $dataDir/HSS300x12_PushoverCyclic_LPC2CSuzuki_NoAxialLoad_strainFiberLayerPos2.txt -ele 12 section 1 fiber 34.2 -144 1 strain;
	
	recorder Element -file $dataDir/HSS300x12_PushoverCyclic_LPC2CSuzuki_NoAxialLoad_stressFiberLayerPos1.txt -ele 12 section 1 fiber 11.4 -144 1 stress;
	recorder Element -file $dataDir/HSS300x12_PushoverCyclic_LPC2CSuzuki_NoAxialLoad_strainFiberLayerPos1.txt -ele 12 section 1 fiber 11.4 -144 1 strain;
	
	
	recorder Element -file $dataDir/HSS300x12_PushoverCyclic_LPC2CSuzuki_NoAxialLoad_stressFiberLayerNeg7.txt -ele 12 section 1 fiber -144 -85.5 1 stress;
	recorder Element -file $dataDir/HSS300x12_PushoverCyclic_LPC2CSuzuki_NoAxialLoad_strainFiberLayerNeg7.txt -ele 12 section 1 fiber -144 -85.5 1 strain;
	
	recorder Element -file $dataDir/HSS300x12_PushoverCyclic_LPC2CSuzuki_NoAxialLoad_stressFiberLayerNeg6.txt -ele 12 section 1 fiber -135.2 -135.2 1 stress;
	recorder Element -file $dataDir/HSS300x12_PushoverCyclic_LPC2CSuzuki_NoAxialLoad_strainFiberLayerNeg6.txt -ele 12 section 1 fiber -135.2 -135.2 1 strain;
	
	recorder Element -file $dataDir/HSS300x12_PushoverCyclic_LPC2CSuzuki_NoAxialLoad_stressFiberLayerNeg5.txt -ele 12 section 1 fiber -102.6 144 1 stress;
	recorder Element -file $dataDir/HSS300x12_PushoverCyclic_LPC2CSuzuki_NoAxialLoad_strainFiberLayerNeg5.txt -ele 12 section 1 fiber -102.6 144 1 strain;
	
	recorder Element -file $dataDir/HSS300x12_PushoverCyclic_LPC2CSuzuki_NoAxialLoad_stressFiberLayerNeg4.txt -ele 12 section 1 fiber -79.8 144 1 stress;
	recorder Element -file $dataDir/HSS300x12_PushoverCyclic_LPC2CSuzuki_NoAxialLoad_strainFiberLayerNeg4.txt -ele 12 section 1 fiber -79.8 144 1 strain;
	
	recorder Element -file $dataDir/HSS300x12_PushoverCyclic_LPC2CSuzuki_NoAxialLoad_stressFiberLayerNeg3.txt -ele 12 section 1 fiber -57 144 1 stress;
	recorder Element -file $dataDir/HSS300x12_PushoverCyclic_LPC2CSuzuki_NoAxialLoad_strainFiberLayerNeg3.txt -ele 12 section 1 fiber -57 144 1 strain;
	
	recorder Element -file $dataDir/HSS300x12_PushoverCyclic_LPC2CSuzuki_NoAxialLoad_stressFiberLayerNeg2.txt -ele 12 section 1 fiber -34.2 144 1 stress;
	recorder Element -file $dataDir/HSS300x12_PushoverCyclic_LPC2CSuzuki_NoAxialLoad_strainFiberLayerNeg2.txt -ele 12 section 1 fiber -34.2 144 1 strain;
	
	recorder Element -file $dataDir/HSS300x12_PushoverCyclic_LPC2CSuzuki_NoAxialLoad_stressFiberLayerNeg1.txt -ele 12 section 1 fiber -11.4 144 1 stress;
	recorder Element -file $dataDir/HSS300x12_PushoverCyclic_LPC2CSuzuki_NoAxialLoad_strainFiberLayerNeg1.txt -ele 12 section 1 fiber -11.4 144 1 strain;

	
	
#######################################################################################
#                                                                                     #
#                              Analysis Section			                          #
#                                                                                     #
#######################################################################################

# Start timer
set startT [clock seconds]

# define GRAVITY -------------------------------------------------------------
#No gravity loading

puts "Model Built"




# STATIC PUSHOVER ANALYSIS-----------------------------------------------------------------------------

puts "Running Analysis..."

# assign lateral loads and create load pattern
  set CtrlNode 2
  set CtrlDOF 2;
  pattern Plain 200 Linear {			
	 load $CtrlNode 0.0 1.0 0.0 0.0 0.0 0.0;
  }
  
# analysis commands
	constraints Plain;					# how it handles boundary conditions
	numberer RCM;						# renumber dof's to minimize band-width (optimization)
	system UmfPack;					# how to store and solve the system of equations in the analysis (large model: try UmfPack)
	test EnergyIncr 1.0e-8 5000;		# type of convergence criteria with tolerance, max iterations
	algorithm KrylovNewton;					# use Newton's solution algorithm: updates tangent stiffness at every iteration

# Loading Protocol
  #set disp [list 0	-60 0]
  
  #incrementalTo004ChordRot
  #set disp [list 0	0.000833333359390164	0.00166666671878033	0.00250000000000000	0.00333333343756066	0.00416666656243934	0.00500000000000000	0.00583333312487869	0.00666666687514754	0.00750000000000000	0.00833333312485246	0.00916666687514754	0.0100000000000000	0.00916666687514754	0.00833333312485246	0.00750000000000000	0.00666666687514754	0.00583333312487869	0.00500000000000000	0.00416666656243934	
  #constant002ChordRot
  #set disp [list 0	0.000408163266103607	0.000816326532209836	0.00122448975922623	0.00163265306441311	0.00204081629143607	0.00244897951845246	0.00285714290180984	0.00326530612883279	0.00367346935584918	0.00408163258286557	0.00448979580988853	0.00489795903690492	0.00530612257660328	0.00571428580361967	0.00612244903064262	0.00653061225765902	0.00693877548465574	0.00734693871167213	0.0077551019386885
  #LPC1CSuzuki
  #set disp [list 0	-0.000274112283206557	-0.000545610482575738	-0.000817108701488525	-0.00108860688131148	-0.00136010498297049	-0.00163160324096393	-0.00190310149896393	-0.00217459960062295	-0.00244609785861639	-0.00271759596027541	-0.00298909421826885	-0.00326059247626885	-0.00353209042158033	-0.00380358867958033	-0.00407508693757377	-0.00434658519557377	-0.00461808345356721	-0.00488958139888525
 #LPC2CSuzuki
 set disp [list 0	0.000213573272110820	0.000495135549639344	0.000776697846708197	0.00105826010469508	0.00133982236268197	0.00162138469883934	0.00190294687864918	0.00218450921480656	0.00246607139462295	0.00274763357443934	0.00302919606693771	0.00331075824674754	0.00359232042656393	0.00387388291906230	0.00415544509887869	0.00443700727869508	0.00471856945850492	0.00500013195100328	0.00528169413081967
 #LPSCSuzuki
 #set disp [list 0	-0.000180490779095082	-0.000426514578647213	-0.000672538319573771	-0.000918562138668853	-0.00116458595776393	-0.00141060969868852	-0.00165663343961311	-0.00190265733687869	-0.00214868107780328	-0.00239470481872787	-0.00264072855965246	-0.00288675245691803	-0.00313277635417705	-0.00337879993876721	-0.00314983993280000	-0.00292087992683934	-0.00269191992087213	-0.00246296007125246

  set LoopLength [llength $disp]
  set h 1 
  
# Run the static cyclic analysis
  set NSteps 1;
  set dU1 0;
  set ok 0;
  
  puts "Analysis..."
  set tStart [clock seconds];
  while {$ok == 0 && $h < $LoopLength} {
	# List is zero index
	set index [expr $h]
	# We need to relative deformation of the loading protocol
	# Subtract dUi+1 - dUi
	set D1 [lindex $disp $index];
	set D2 [lindex $disp $index-1];
	set dU1 [expr ($D1-$D2)*$L];
	
	# Create Nsteps from Amplitude to Amplitude
	set dU [expr ($dU1)/$NSteps]
	
	# Displacement Control Integrator
	integrator DisplacementControl $CtrlNode $CtrlDOF $dU
	analysis Static
     puts "increment = [expr {$h}] / [expr {$LoopLength}]";

	set ok [ analyze $NSteps]
	set h [expr $h + 1 ]
} 	
set tFinish [clock seconds];
puts "Duration Process: [expr $tFinish - $tStart]"; 

	

wipe all;