###################################################################################################
#          Set Up & Source Definition									  
###################################################################################################
	wipe all;							# clear memory of past model definitions
	model BasicBuilder -ndm 2 -ndf 3;	# Define the model builder, ndm = #dimension, ndf = #dofs
	set dataDir results_LegeronPaultre2000_SpecimenC100B130N25;			# name of output folder
	file mkdir $dataDir;						# create output folder

###################################################################################################
#          Define Section Properties and Elements													  
###################################################################################################
	
# define HSS column element section HSS300x20
	set width    305.
	set depth   305.
	set cover 19.;			# Column cover to reinforcing steel NA.
	set As20 300. ;		# area of longitudinal-reinforcement bars 20
	set As15 200. ;		# area of longitudinal-reinforcement bars phi20
 
###################################################################################################
#          Define Subassembly Geometry									  
###################################################################################################

# define structure-geometry parameters
	set L 2150.0;      # Lenght of the column [mm]
	
###################################################################################################
#          Define Subassembly Geometry									  
###################################################################################################
	
# set up geometric transformation of elements
	set ColTransfTag 1; 			# associate a tag to column transformation
	#geomTransf Linear $ColTransfTag;		# Linear transformation
	geomTransf Corotational $ColTransfTag;		# Corotational transformation
	
###################################################################################################
#          Define Nodes & Boundary Conditions							  
###################################################################################################

# define nodes and assign masses to beam-column intersections of frame
	# command:  node nodeID xcoord ycoord 
	node 1 0.0 0.0;
	node 2 0.0 $L;
	
# assign boundary conditions 
	# command:  fix nodeID dxFixity dyFixity rzFixity
	# fixity values: 1 = constrained; 0 = unconstrained
	#fix 1 1 1 1; #cantiliver
	fix 1 1 1 1
	
###################################################################################################
#          Define Beam-Column Elements							  
###################################################################################################

# define fiber beam-column elements
	# Core concrete (confined)
	uniaxialMaterial Concrete01 1  -105.6184   -0.0038  -21.1237   -0.0352
	# Cover concrete (unconfined)
	uniaxialMaterial Concrete01 2 -97.7000   -0.0035  -19.5400   -0.0051
	#Steel reinforcement
	#uniaxialMaterial ReinforcingSteel 3 430.0 661.0 200000.0 5000.0 0.0106 0.142 -DMBuck 6.5 1.0; #LegeronPaultre2000_SpecimenC100B130N25 phi20
	#uniaxialMaterial ReinforcingSteel 4 494.0 729.0 200000.0 5000.0 0.01265 0.132 -DMBuck 8.67 1.0; #LegeronPaultre2000_SpecimenC100B130N25 phi15
	#uniaxialMaterial Steel02 3 430.9 200000.0 0.025 15.0 0.925 0.15
	#uniaxialMaterial Steel02 4 494.0 200000.0 0.025 15.0 0.925 0.15
	uniaxialMaterial Steel01 3 430.9 200000.0 0.025 
	uniaxialMaterial Steel01 4 494.0 200000.0 0.025 

	
# some variables derived from the parameters
set y1 [expr $depth/2.0]
set z1 [expr $width/2.0]

	
section Fiber 1 {

    # Create the concrete core fibers
    patch rect 1 10 1 [expr $cover-$y1] [expr $cover-$z1] [expr $y1-$cover] [expr $z1-$cover]

    # Create the concrete cover fibers (top, bottom, left, right)
    patch rect 2 10 1  [expr -$y1] [expr $z1-$cover] $y1 $z1
    patch rect 2 10 1  [expr -$y1] [expr -$z1] $y1 [expr $cover-$z1]
    patch rect 2  1 1  [expr -$y1] [expr $cover-$z1] [expr $cover-$y1] [expr $z1-$cover]
    patch rect 2  1 1  [expr $y1-$cover] [expr $cover-$z1] $y1 [expr $z1-$cover]

    # Create the reinforcing fibers (left, middle, right)
    layer straight 3 2 $As20 [expr $y1-$cover] [expr $z1-$cover] [expr $y1-$cover] [expr $cover-$z1]
    layer straight 4 2 $As15 0.0 [expr $z1-$cover] 0.0 [expr $cover-$z1]
	layer straight 4 2 $As15 [expr $cover-$y1] 0.0 [expr $y1-$cover] 0.0
    layer straight 3 2 $As20 [expr $cover-$y1] [expr $z1-$cover] [expr $cover-$y1] [expr $cover-$z1]

}

	
	#set integration "NewtonCotes 1 9"
	#element  forceBeamColumn 12 1 2 $ColTransfTag $integration -iter 10 1e-6
	
	set lc [expr 0.0*$depth];
	element testNonlocalElementDH 12 1 2 $ColTransfTag Simpson 1 9  10000 1e-8 $lc
	
############################################################################
#              Recorders					                			   
############################################################################

puts "Recorders ..."

# Record displacements 
	recorder Node -file $dataDir/LegeronPaultre2000_SpecimenC100B130N25_lc0DIP9_Disp.txt -node 2 -dof 1 2 disp;
	
# Record reactions
	recorder Node -file $dataDir/LegeronPaultre2000_SpecimenC100B130N25_lc0DIP9_RBase.txt -node 1 -dof 1 2 3 reaction;
	
# Record stress and strains for fibers
	#recorder Element -file $dataDir/Soesianawati_Specimen2_backboneTension_steel_stress.txt -ele 12 section 1 fiber 150. 150. 1 stress;
	#recorder Element -file $dataDir/Soesianawati_Specimen2_backboneTension_steel_strain.txt -ele 12 section 1 fiber 150. 150. 1 strain;
	
#######################################################################################
#                                                                                     #
#                              Analysis Section			                          #
#                                                                                     #
#######################################################################################

# Start timer
set startT [clock seconds]

# define GRAVITY -------------------------------------------------------------
pattern Plain 1 Linear {
	load 2 0 -2400000 0

}

# Gravity-analysis parameters -- load-controlled static analysis
set Tol 1.0e-6;			# convergence tolerance for test
constraints Plain;     		# how it handles boundary conditions
numberer Plain;			# renumber dof's to minimize band-width (optimization), if you want to
system  BandGeneral;		# how to store and solve the system of equations in the analysis
test RelativeNormUnbalance $Tol 20 2; 		# determine if convergence has been achieved at the end of an iteration step
algorithm Newton;			# use Newton's solution algorithm: updates tangent stiffness at every iteration
set NstepGravity 10;  		# apply gravity in 1 steps
set DGravity [expr 1./$NstepGravity]; 	# first load increment;
integrator LoadControl $DGravity;	# determine the next time step for an analysis
analysis Static;			# define type of analysis static or transient
analyze $NstepGravity;		# apply gravity
# ------------------------------------------------- maintain constant gravity loads and reset time to zero
loadConst -time 0.0

puts "Model Built"




# STATIC PUSHOVER ANALYSIS-----------------------------------------------------------------------------

puts "Running Analysis..."

# assign lateral loads and create load pattern
  set CtrlNode 2
  set CtrlDOF 1;
  pattern Plain 200 Linear {			
	 load $CtrlNode 1.0 0.0 0.0;
  }
  
# analysis commands
	constraints Plain;					# how it handles boundary conditions
	numberer RCM;						# renumber dof's to minimize band-width (optimization)
	system BandGeneral;					# how to store and solve the system of equations in the analysis (large model: try UmfPack)
	test EnergyIncr 1.0e-8 10000;		# type of convergence criteria with tolerance, max iterations
	algorithm KrylovNewton;					# use Newton's solution algorithm: updates tangent stiffness at every iteration
	#algorithm NewtonLineSearch;

#cyclic run
set disp [list 0. -1.2203	-0.589	1.7042	5.0601	6.3962	7.1852	8.1214	9.4785	11.12	13.213	13.182	10.73	8.3844	6.312	4.5131	2.6931	0.663	-0.989	-3.3348	-3.966	-4.7024	-6.6486	-8.5528	-10.467	-13.034	-14.139	-16.159	-16.853	-15.517	-12.698	-10.11	-8.0373	-6.1752	-4.3868	-2.8194	-2.3144	-1.5149	0.505	2.4091	3.7977	5.2179	7.7638	9.731	12.834	16.19	18.505	22.523	27.71	28.762	30.35	30.592	27.541	24.185	20

  set LoopLength [llength $disp]
  set h 1 
  
# Run the static cyclic analysis
  set NSteps 1;
  set dU1 0;
  set ok 0;
  
  puts "Analysis..."
  set tStart [clock seconds];
  while {$ok == 0 && $h < $LoopLength} {
	# List is zero index
	set index [expr $h]
	# We need to relative deformation of the loading protocol
	# Subtract dUi+1 - dUi
	set D1 [lindex $disp $index];
	set D2 [lindex $disp $index-1];
	#set dU1 [expr ($D1-$D2)*$L];
	set dU1 [expr ($D1-$D2)];
	
	# Create Nsteps from Amplitude to Amplitude
	set dU [expr ($dU1)/$NSteps]
	
	# Displacement Control Integrator
	integrator DisplacementControl $CtrlNode $CtrlDOF $dU
	analysis Static
     puts "increment = [expr {$h}] / [expr {$LoopLength}]";

	set ok [ analyze $NSteps]
	set h [expr $h + 1 ]
} 	
set tFinish [clock seconds];

puts "Duration Process: [expr $tFinish - $tStart]"; 

	

wipe all;