###################################################################################################
#          Set Up & Source Definition									  
###################################################################################################
	wipe all;							# clear memory of past model definitions
	model BasicBuilder -ndm 3 -ndf 6;	# Define the model builder, ndm = #dimension, ndf = #dofs
	set dataDir resultsWebPlate_bSurT25_CyclicLPs;			# name of output folder
	file mkdir $dataDir;						# create output folder

###################################################################################################
#          Define Section Properties and Elements													  
###################################################################################################
	
# define HSS column element section HSS300x20
	set bSection  500.0;										# section depth
	set bPlate  360.0;										# HSS depth for material law
	set tPlate 14.4;										# plate thickness  for material law
	set bSurTPlate [expr $bPlate / $tPlate];				# b/t HSS plate
	set sigmaC0 408.3530;									# Initial capping stress sigmaC0
	set alphaRegularization 1.0;
	
###################################################################################################
#          Define Subassembly Geometry									  
###################################################################################################

# define structure-geometry parameters
	set L 1525.0;      # Lenght of the column [mm]
	
###################################################################################################
#          Define Subassembly Geometry									  
###################################################################################################
	
# set up geometric transformation of elements
	set ColTransfTag 1; 			# associate a tag to column transformation
	geomTransf Linear $ColTransfTag 0 0 1;		# Linear transformation
	#geomTransf Corotational $ColTransfTag 0 0 1;		# Corotational transformation
	
###################################################################################################
#          Define Nodes & Boundary Conditions							  
###################################################################################################

# define nodes and assign masses to beam-column intersections of frame
	# command:  node nodeID xcoord ycoord 
	node 1 0.0 0.0 0.0;
	node 2 $L 0.0 0.0;
	
# assign boundary conditions 
	# command:  fix nodeID dxFixity dyFixity rzFixity
	# fixity values: 1 = constrained; 0 = unconstrained
	fix 1 1 1 1 1 1 1;
	fix 2 0 0 0 0 0 0;
	
###################################################################################################
#          Define Beam-Column Elements							  
###################################################################################################

# define fiber beam-column elements
	set E 200000.;
	set nu 0.3; 
	
	#Torsion part
	set G 	[expr $E/2.0/(1+$nu)]; # shear modulus
	set do 	[expr $bPlate-$tPlate]; 			# median depth
	set J   [expr $do**3*$tPlate]; 		# torsional constant   
	set GJ 	[expr $G*$J];  			# torsional stiffness 
	
	#nDMaterial ElasticIsotropic 1 $E $nu
	#nDMaterial LocalBucklingWebPlate 1 200000.0 0.3 370.0 0.0 1.0 0.0 1.0 1 3512.0 30.0 $bPlate $tPlate $sigmaC0 1.;
	nDMaterial LocalBucklingWebPlate 1 191020.0 0.3 373.72 141.47 15.2 135.95 211.16 2 25621 235.12 942.18 3.16 $bPlate $tPlate $sigmaC0 $alphaRegularization;

	
	set N_LoadingDir 2;
	set N_TranverseDir 2;

	
	set absCoordCorner [expr $bSection/2.0];
	set zIS [expr $absCoordCorner];
	set yIS [expr -$absCoordCorner];
	set zJS [expr -$absCoordCorner];
	set yJS [expr $absCoordCorner];

	
	section NDFiber 1 -GJ $GJ {;	
	#			 matTag  umSubdivY  numSubdivZ  yI  	zI  	yJ    zJ
	patch rect 1 $N_LoadingDir $N_TranverseDir $yIS $zIS $yJS $zJS;

	}

	
	set integration "NewtonCotes 1 5"
	element  forceBeamColumn 12 1 2 $ColTransfTag $integration -iter 10 1e-6
	
############################################################################
#              Recorders					                			   
############################################################################

puts "Recorders ..."

# Record displacements 
	#recorder Node -file $dataDir/WebPlate_bSurT25_incrementalTo005_Disp_OpenSees.txt -node 2 -dof 1 disp;
	
# Record reactions
	#recorder Node -file $dataDir/WebPlate_bSurT25_incrementalTo005_RBase_OpenSees.txt -node 1 -dof 1 reaction;
	
# Record stress and strains for fibers
	recorder Element -file $dataDir/WebPlate_bSurT25_cyclic_constant005_stressFiber_OpenSees.txt -ele 12 section 1 fiber 150. 150. 1 stress;
	recorder Element -file $dataDir/WebPlate_bSurT25_cyclic_constant005_strainFiber_OpenSees.txt -ele 12 section 1 fiber 150. 150. 1 strain;
	
#######################################################################################
#                                                                                     #
#                              Analysis Section			                          #
#                                                                                     #
#######################################################################################

# define GRAVITY -------------------------------------------------------------
pattern Plain 1 Linear {
   load 1 0 0 0 0 0 0

}

# Gravity-analysis parameters -- load-controlled static analysis
set Tol 1.0e-3;			# convergence tolerance for test
constraints Plain;     		# how it handles boundary conditions
numberer Plain;			# renumber dof's to minimize band-width (optimization), if you want to
system  BandGeneral;		# how to store and solve the system of equations in the analysis
test RelativeNormUnbalance $Tol 20 2; 		# determine if convergence has been achieved at the end of an iteration step
algorithm Newton;			# use Newton's solution algorithm: updates tangent stiffness at every iteration
set NstepGravity 1;  		# apply gravity in 1 steps
set DGravity [expr 1./$NstepGravity]; 	# first load increment;
integrator LoadControl $DGravity;	# determine the next time step for an analysis
analysis Static;			# define type of analysis static or transient
analyze $NstepGravity;		# apply gravity
# ------------------------------------------------- maintain constant gravity loads and reset time to zero
loadConst -time 0.0

puts "Model Built"




# STATIC PUSHOVER ANALYSIS-----------------------------------------------------------------------------

puts "Running Analysis..."

# assign lateral loads and create load pattern
  set CtrlNode 2
  set CtrlDOF 1;
  pattern Plain 200 Linear {			
	 load $CtrlNode 1.0 0.0 0.0 0.0 0.0 0.0;
  }
  
# analysis commands
	constraints Plain;					# how it handles boundary conditions
	numberer RCM;						# renumber dof's to minimize band-width (optimization)
	system BandGeneral;					# how to store and solve the system of equations in the analysis (large model: try UmfPack)
	test EnergyIncr 1.0e-8 1000;		# type of convergence criteria with tolerance, max iterations
	algorithm KrylovNewton;					# use Newton's solution algorithm: updates tangent stiffness at every iteration

# Loading Protocol
  #set disp [list 0	-60 0]
  
  #incrementalTo005
  #set disp [list 0	-0.000526315789473684	-0.00105263157894737	-0.00157894736842105	-0.00210526315789474	-0.00263157894736842	-0.00315789473684211	-0.00368421052631579	-0.00421052631578947	-0.00473684210526316	-0.00526315789473684	-0.00578947368421053	-0.00631578947368421	-0.00684210526315790	-0.00736842105263158	-0.00789473684210526	-0.00842105263157895	-0.00894736842105263	-0.00947368421052632	-
  #assymetric
  #set disp [list 0	-0.000303030303030303	-0.000606060606060606	-0.000909090909090909	-0.00121212121212121	-0.00151515151515152	-0.00181818181818182	-0.00212121212121212	-0.00242424242424242	-0.00272727272727273	-0.00303030303030303	-0.00333333333333333	-0.00363636363636364	-0.00393939393939394	-0.00424242424242424	-0.00454545454545455	-0.00484848484848485	-0.00515151515151515	-0.00545454545454546
  # decrementalFrom005
  #set disp [list 0	-0.000505050505050505	-0.00101010101010101	-0.00151515151515152	-0.00202020202020202	-0.00252525252525253	-0.00303030303030303	-0.00353535353535354	-0.00404040404040404	-0.00454545454545455	-0.00505050505050505	-0.00555555555555556	-0.00606060606060606	-0.00656565656565657	-0.00707070707070707	-0.00757575757575758	-0.00808080808080808	-0.00858585858585859	-0.00909090909090909	-
  # hardeningCyclesPushtoBuckle
  #set disp [list 0	0.000357142857142857	0.000714285714285714	0.00107142857142857	0.00142857142857143	0.00178571428571429	0.00214285714285714	0.00250000000000000	0.00285714285714286	0.00321428571428571	0.00357142857142857	0.00392857142857143	0.00428571428571429	0.00464285714285714	0.00500000000000000	0.00466666666666667	0.00433333333333333	0.00400000000000000	0.00366666666666667	0.0033333333333333
  # constant005
#set disp [list 0	-0.00102040817340000	-0.00204081634680556	-0.00210459182660000	-0.00216836730638889	-0.00223214278618333	-0.00232780608866111	-0.00247130095958889	-0.00268654343154444	-0.00300940672556667	-0.00349370208051667	-0.00422014494737222	-0.00524055328633889	-0.00626096129416667	-0.00728136963316667	-0.00830177797211111	-0.00932218564883333	-0.0103425939877778	-0.0113630016645000	-0.012
  #big increment in strain
  #set disp [list 0. -0.5 0.]
  #Monotonic to large strain
  #set disp [list 0. 0	-0.00200200200200200	-0.00400400400400400	-0.00600600600600601	-0.00800800800800801	-0.0100100100100100	-0.0120120120120120	-0.0140140140140140	-0.0160160160160160	-0.0180180180180180	-0.0200200200200200	-0.0220220220220220	-0.0240240240240240	-0.0260260260260260	-0.0280280280280280	-0.0300300300300300	-0.0320320320320320	-0.0340340340340340	-0.0360360360360360	-0.0380380380
  #Unload at high strain
set disp [list 0. 0	-0.000530785562632696	-0.00106157112526539	-0.00159235668789809	-0.00212314225053079	-0.00265392781316348	-0.00318471337579618	-0.00371549893842887	-0.00424628450106157	-0.00477707006369427	-0.00530785562632696	-0.00583864118895966	-0.00636942675159236	-0.00690021231422505	-0.00743099787685775	-0.00796178343949045	-0.00849256900212314	-0.00902335456475584	-0.00955414012738854	-
  
  
  set LoopLength [llength $disp]
  set h 1 
  
# Run the static cyclic analysis
  set NSteps 1;
  set dU1 0;
  puts "Analysis..."
  set tStart [clock seconds];
  set ok 0;
  while {$ok == 0 && $h < $LoopLength} {
	# List is zero index
	set index [expr $h]
	# We need to relative deformation of the loading protocol
	# Subtract dUi+1 - dUi
	set D1 [lindex $disp $index];
	set D2 [lindex $disp $index-1];
	set dU1 [expr ($D1-$D2)*$L];
	
	# Create Nsteps from Amplitude to Amplitude
	set dU [expr ($dU1)/$NSteps]
	
	# Displacement Control Integrator
	integrator DisplacementControl $CtrlNode $CtrlDOF $dU
	analysis Static
     puts "increment = [expr {$h}] / [expr {$LoopLength}]";

	set ok [ analyze $NSteps]
	set h [expr $h + 1 ]
} 	
set tFinish [clock seconds];
puts "Duration Process: [expr $tFinish - $tStart]"; 


	

wipe all;