###################################################################################################
#          Set Up & Source Definition									  
###################################################################################################
wipe all;							# clear memory of past model definitions
model BasicBuilder -ndm 3 -ndf 6;	# Define the model builder, ndm = #dimension, ndf = #dofs

set dataDir results;			# name of output folder
file mkdir $dataDir;			# create output folder

###################################################################################################
#          Define Section Properties and Elements													  
###################################################################################################
	
# define Wide-flange column element section W24x146

set d 	627;
set bf 	328;
set tf  27.7;
set tw  16.5;

set L 2000.0;      # Lenght of the column [mm]

###################################################################################################
#          Define Subassembly Geometry									  
###################################################################################################

set ColTransfTag 1; 						# associate a tag to column transformation
geomTransf Linear $ColTransfTag 0 0 1;		# Linear transformation
	
###################################################################################################
#          Define Nodes & Boundary Conditions							  
###################################################################################################

node 1 0.0 0.0 0.0;
node 2 0.0 $L  0.0;
	
fix 1 1 1 1 1 1 1;
fix 2 0 0 1 1 1 0;
	
###################################################################################################
#          Define Beam-Column Elements							  
###################################################################################################

set E 		200000.;
set mu 		0.3; 
set sigmay  373.72;									# yield stress
set sigmaC0 415.29;									# Initial capping stress

#Torsion part
set G 	[expr $E/2.0/(1+$mu)];  # shear modulus
set do 	[expr $d-$tf]; 		# median depth
set J   [expr 1.0/3.0*(2*$bf*$tf**3.0 + $do*$tw**3.0)]; 		# torsional constant   
set GJ 	[expr $G*$J];  			# torsional stiffness 


set dw [expr $d - 2 * $tf]

nDMaterial HLBModel 1 $E $mu $sigmay  0.14147 15.2 135.95 211.16 2 25621. 235.12 942.18 3.16 [expr $bf/2] $tf $sigmaC0 1.0 flange A992Gr50 mm kN;
nDMaterial HLBModel 2 $E $mu $sigmay  0.14147 15.2 135.95 211.16 2 25621. 235.12 942.18 3.16 $dw 		    $tw $sigmaC0 1.0 web    A992Gr50 mm kN;

set nfbf  4; set nftf 1;
set nfdw 10; set nftw 1;
	
section NDFiber 1 -GJ $GJ {
	
	patch rect 1 $nfbf $nftf [expr  -$d/2]       [expr -$bf/2] [expr -($d/2-$tf)]  [expr $bf/2];	#Bottom flange
	patch rect 2 $nftw $nfdw [expr -($d/2-$tf)]  [expr -$tw/2] [expr  ($d/2-$tf)]  [expr $tw/2];	#Web
	patch rect 1 $nfbf $nftf [expr  ($d/2-$tf)]  [expr -$bf/2] [expr   $d/2]       [expr $bf/2];	#Top flange

}

element  forceBeamColumn 12 1 2 $ColTransfTag "NewtonCotes 1 5" -iter 30 1e-5
	
############################################################################
#              Recorders					                			   
############################################################################
	
recorder Node -file $dataDir/Force.txt -node 1 -dof 1  reaction;
recorder Node -file $dataDir/Disp.txt  -node 2 -dof 1  disp;

#######################################################################################
#                                                                                     #
#                                 Analysis Section			                          #
#                                                                                     #
#######################################################################################

# define GRAVITY -------------------------------------------------------------
pattern Plain 1 Linear {
   load 2 0 -5000.0 0 0 0 0

}

# Gravity-analysis parameters -- load-controlled static analysis
set Tol 1.0e-6;							# convergence tolerance for test
constraints Plain;     					# how it handles boundary conditions
numberer Plain;							# renumber dof's to minimize band-width (optimization), if you want to
system  BandGeneral;					# how to store and solve the system of equations in the analysis
test RelativeNormUnbalance $Tol 100 2; 	# determine if convergence has been achieved at the end of an iteration step
algorithm Newton;						# use Newton's solution algorithm: updates tangent stiffness at every iteration
set NstepGravity 10;  					# apply gravity in 1 steps
set DGravity [expr 1./$NstepGravity]; 	# first load increment;
integrator LoadControl $DGravity;		# determine the next time step for an analysis
analysis Static;						# define type of analysis static or transient
analyze $NstepGravity;					# apply gravity


# ------------------------------------------------- maintain constant gravity loads and reset time to zero
loadConst -time 0.0

puts "Model Built"



# STATIC PUSHOVER ANALYSIS-----------------------------------------------------------------------------

puts "Running Analysis..."

# assign lateral loads and create load pattern
  set CtrlNode 2
  set CtrlDOF 1;
  pattern Plain 200 Linear {			
	 load $CtrlNode 1.0 0.0 0.0 0.0 0.0 0.0;
  }
  
# analysis commands
constraints Plain;					# how it handles boundary conditions
numberer RCM;						# renumber dof's to minimize band-width (optimization)
system BandGeneral;					# how to store and solve the system of equations in the analysis (large model: try UmfPack)
test EnergyIncr 1.0e-6 1000;		# type of convergence criteria with tolerance, max iterations
algorithm KrylovNewton;					# use Newton's solution algorithm: updates tangent stiffness at every iteration

# Loading Protocol
#set disp [list 0	-60 0]
#set disp [list 0	-0.000303030303030303	-0.000606060606060606	-0.000909090909090909	-0.00121212121212121	-0.00151515151515152	-0.00181818181818182	-0.00212121212121212	-0.00242424242424242	-0.00272727272727273	-0.00303030303030303	-0.00333333333333333	-0.00363636363636364	-0.00393939393939394	-0.00424242424242424	-0.00454545454545455	-0.00484848484848485	-0.00515151515151515	-0.00545454545454546	-
set disp [list 0	-0.000526315789473684	-0.00105263157894737	-0.00157894736842105	-0.00210526315789474	-0.00263157894736842	-0.00315789473684211	-0.00368421052631579	-0.00421052631578947	-0.00473684210526316	-0.00526315789473684	-0.00578947368421053	-0.00631578947368421	-0.00684210526315790	-0.00736842105263158	-0.00789473684210526	-0.00842105263157895	-0.00894736842105263	-0.00947368421052632	-0.0
set factor 1.0;

set LoopLength [llength $disp]
set h 1 
set ok 0;
  
# Run the static cyclic analysis
set NSteps 1;
set dU1 0;
puts "Analysis..."
  
while {$ok == 0 && $h < $LoopLength} {
	# List is zero index
	set index [expr $h]
	
	# We need to relative deformation of the loading protocol
	# Subtract dUi+1 - dUi
	set D1 [lindex $disp $index];
	set D2 [lindex $disp $index-1];
	set dU1 [expr $factor*($D1-$D2)*$L];
	
	# Create Nsteps from Amplitude to Amplitude
	set dU [expr ($dU1)/$NSteps]
	
	# Displacement Control Integrator
	integrator DisplacementControl $CtrlNode $CtrlDOF $dU
	analysis Static
    puts "increment = [expr {$h}] / [expr {$LoopLength}]";

	set ok [ analyze $NSteps]
	set h [expr $h + 1 ]
} 	

wipe all;