###################################################################################################
#          Set Up & Source Definition									  
###################################################################################################
	wipe all;							# clear memory of past model definitions
	model BasicBuilder -ndm 3 -ndf 6;	# Define the model builder, ndm = #dimension, ndf = #dofs
	set dataDir resultsW625_Suzuki2021;			# name of output folder
	file mkdir $dataDir;						# create output folder
	

###################################################################################################
#          Define Section Properties and Elements													  
###################################################################################################
	
# define section
	set bf  257.0;										# total flange width
	set bf4MaterialLaw [expr $bf/ 2];
	set tf  21.7;										# flange thickness
	set d 363.0;										# section depth
	set rKArea 15.0;									# radius of K-Area
	set tw 13.0;										# web thickness
	set h [expr $d-2*$tf-2*$rKArea];					# Web PLATE depth for material law softening
	
	set bSurTFlange [expr $bf/(2*$tf)];
	set bSurTWeb [expr $h/$tw];
	
	#set sigmaC0_Web [expr 1.2*421.2];
	#set sigmaC0_Flange [expr 1.0*511.9];
	set sigmaC0_Web [expr 1.2*421.0];
	set sigmaC0_Flange [expr 1.0*512.0];
	
	
	set alphaRegularization_Web 1.0;							# Factor for regularization web 
	set alphaRegularization_Flange 1.0;							# Factor for regularization flange
	
###################################################################################################
#          Define Subassembly Geometry									  
###################################################################################################

# define structure-geometry parameters
	set L 1825.0;      # Lenght of the column [mm]
	
###################################################################################################
#          Define Subassembly Geometry									  
###################################################################################################
	
# set up geometric transformation of elements
	set ColTransfTag 1; 			# associate a tag to column transformation
	set BeamTransfTag 2; 			# associate a tag to beam transformation
	#geomTransf Linear $ColTransfTag 0 0 -1;		# Linear transformation
	geomTransf Corotational $ColTransfTag 0 0 -1;		# Corotational transformation
	geomTransf Linear $BeamTransfTag 0 0 1;		# Linear transformation
	
###################################################################################################
#          Define Nodes & Boundary Conditions							  
###################################################################################################

# define nodes and assign masses to beam-column intersections of frame
	# command:  node nodeID xcoord ycoord 
	node 1 0.0 0.0 0.0;
	node 2 0.0 $L 0.0;
	node 3 0.0 $L 0.0;
	node 4  -791.0 $L 0.0;
	node 5 0.0 [expr $L+306.0] 0.0;
	
# Pin constraints for same nodes
	equalDOF 3 2 1 2 6; 
	
# assign boundary conditions 
	# command:  fix nodeID dxFixity dyFixity rzFixity
	# fixity values: 1 = constrained; 0 = unconstrained
	fix 1 1 1 1 1 1 1;
	fix 2 0 0 1 1 1 0;
	fix 3 0 0 1 1 1 0;
	fix 4 0 0 1 1 1 0;
	
###################################################################################################
#          Define Beam-Column Elements							  
###################################################################################################

# define fiber beam-column elements
	set E 191020.;
	set nu 0.3; 
	
	#Torsion part
	set G 	[expr $E/2.0/(1+$nu)]; # shear modulus
	set do 	[expr $d-$tf]; 			# median depth
	set J   [expr 1.0/3.0*(2*$bf*$tf**3.0 + $do*$tw**3.0)]; 		# torsional constant   
	set GJ 	[expr $G*$J];  			# torsional stiffness 
	
	#nDMaterial ElasticIsotropic 1 $E $nu
	nDMaterial LocalBucklingFlangePlate 1 191020.0 0.3 373.72 141.47 15.2 135.95 211.16 2 25621 235.12 942.18 3.16 $bf4MaterialLaw $tf $sigmaC0_Flange $alphaRegularization_Flange;
	nDMaterial LocalBucklingWebPlate 2 191020.0 0.3 373.72 141.47 15.2 135.95 211.16 2 25621 235.12 942.18 3.16 $h $tw $sigmaC0_Web $alphaRegularization_Web;
	
	set NFlange_LoadingDir 1;
	set NFlange_TranverseDir 4;
	set NWeb_LoadingDir 10;
	set NWeb_TranverseDir 1;	
	
	section NDFiber 1 -GJ $GJ {;	
	#			 matTag  umSubdivY  numSubdivZ  yI  	zI  	yJ    zJ
	patch rect 1 $NFlange_LoadingDir $NFlange_TranverseDir [expr -$d/2]               [expr -$bf/2]                    [expr -($d/2-$tf)]             [expr $bf/2];	#Bottom flange
	patch rect 2 $NWeb_LoadingDir $NWeb_TranverseDir            [expr -($d/2-$tf)] [expr -$tw/2] [expr ($d/2-$tf)] [expr $tw/2];									#Web
	patch rect 1 $NFlange_LoadingDir $NFlange_TranverseDir [expr ($d/2-$tf)]             [expr -$bf/2]                    [expr $d/2]             [expr $bf/2];		#Top flange

	}

	
	#set integration "NewtonCotes 1 5"
	#element  forceBeamColumn 12 1 2 $ColTransfTag $integration -iter 30 1e-5
	set lc [expr 2.5*$bf];
	element gradientForceBeamColumn 12 1 2 $ColTransfTag Simpson 1 7 20 1e-6 $lc
	
	element elasticBeamColumn 34 3 4 11500 [expr $E*1000.0] [expr $G*1000.0] 44500000 44500000 44500000 $BeamTransfTag 
	element elasticBeamColumn 35 3 5 11500 [expr $E*1000.0] [expr $G*1000.0] 44500000 44500000 44500000 $ColTransfTag 
	
############################################################################
#              Recorders					                			   
############################################################################

puts "Recorders ..."

#lc20bfLcSurDx1
# Record displacements 
	recorder Node -file $dataDir/W625SC30_Suzuki2021_lc25bfLcSurDx2_Disp.txt -node 2 -dof 1 2 disp;
	
# Record reactions
	recorder Node -file $dataDir/W625SC30_Suzuki2021_lc25bfLcSurDx2_RBase.txt -node 1 -dof 1 2 6 reaction;
	
# Record stress and strains for fibers
#recorder Element -file $dataDir/W625SC30_Suzuki2021_lc25bfLcSurDx2_strainFiberExtremePos.txt -ele 12 section 1 fiber 170.7 32.13 strain; 
#recorder Element -file $dataDir/W625SC30_Suzuki2021_lc25bfLcSurDx2_stressFiberExtremePos.txt -ele 12 section 1 fiber 170.7 32.13 stress; 
#recorder Element -file $dataDir/W625SC30_Suzuki2021_lc25bfLcSurDx2_strainFiberExtremeNeg.txt -ele 12 section 1 fiber -170.7 32.13 strain;
#recorder Element -file $dataDir/W625SC30_Suzuki2021_lc25bfLcSurDx2_stressFiberExtremeNeg.txt -ele 12 section 1 fiber -170.7 32.13 stress;

recorder Element -file $dataDir/W625SC30_Suzuki2021_lc25bfLcSurDx2_stressFiberY171Z32.txt -ele 12 section 1 fiber 170.65 32.13 stress; 
recorder Element -file $dataDir/W625SC30_Suzuki2021_lc25bfLcSurDx2_strainFiberY171Z32.txt -ele 12 section 1 fiber 170.65 32.13 strain; 
recorder Element -file $dataDir/W625SC30_Suzuki2021_lc25bfLcSurDx2_stressFiberY144Z0.txt -ele 12 section 1 fiber 143.82 0.00 stress; 
recorder Element -file $dataDir/W625SC30_Suzuki2021_lc25bfLcSurDx2_strainFiberY144Z0.txt -ele 12 section 1 fiber 143.82 0.00 strain; 
recorder Element -file $dataDir/W625SC30_Suzuki2021_lc25bfLcSurDx2_stressFiberY112Z0.txt -ele 12 section 1 fiber 111.86 0.00 stress; 
recorder Element -file $dataDir/W625SC30_Suzuki2021_lc25bfLcSurDx2_strainFiberY112Z0.txt -ele 12 section 1 fiber 111.86 0.00 strain; 
recorder Element -file $dataDir/W625SC30_Suzuki2021_lc25bfLcSurDx2_stressFiberY80Z0.txt -ele 12 section 1 fiber 79.90 0.00 stress; 
recorder Element -file $dataDir/W625SC30_Suzuki2021_lc25bfLcSurDx2_strainFiberY80Z0.txt -ele 12 section 1 fiber 79.90 0.00 strain; 
recorder Element -file $dataDir/W625SC30_Suzuki2021_lc25bfLcSurDx2_stressFiberY48Z0.txt -ele 12 section 1 fiber 47.94 0.00 stress; 
recorder Element -file $dataDir/W625SC30_Suzuki2021_lc25bfLcSurDx2_strainFiberY48Z0.txt -ele 12 section 1 fiber 47.94 0.00 strain; 
recorder Element -file $dataDir/W625SC30_Suzuki2021_lc25bfLcSurDx2_stressFiberY16Z0.txt -ele 12 section 1 fiber 15.98 0.00 stress; 
recorder Element -file $dataDir/W625SC30_Suzuki2021_lc25bfLcSurDx2_strainFiberY16Z0.txt -ele 12 section 1 fiber 15.98 0.00 strain; 
recorder Element -file $dataDir/W625SC30_Suzuki2021_lc25bfLcSurDx2_stressFiberY-16Z0.txt -ele 12 section 1 fiber -15.98 0.00 stress; 
recorder Element -file $dataDir/W625SC30_Suzuki2021_lc25bfLcSurDx2_strainFiberY-16Z0.txt -ele 12 section 1 fiber -15.98 0.00 strain; 
recorder Element -file $dataDir/W625SC30_Suzuki2021_lc25bfLcSurDx2_stressFiberY-48Z0.txt -ele 12 section 1 fiber -47.94 0.00 stress; 
recorder Element -file $dataDir/W625SC30_Suzuki2021_lc25bfLcSurDx2_strainFiberY-48Z0.txt -ele 12 section 1 fiber -47.94 0.00 strain; 
recorder Element -file $dataDir/W625SC30_Suzuki2021_lc25bfLcSurDx2_stressFiberY-80Z0.txt -ele 12 section 1 fiber -79.90 0.00 stress; 
recorder Element -file $dataDir/W625SC30_Suzuki2021_lc25bfLcSurDx2_strainFiberY-80Z0.txt -ele 12 section 1 fiber -79.90 0.00 strain; 
recorder Element -file $dataDir/W625SC30_Suzuki2021_lc25bfLcSurDx2_stressFiberY-112Z0.txt -ele 12 section 1 fiber -111.86 0.00 stress; 
recorder Element -file $dataDir/W625SC30_Suzuki2021_lc25bfLcSurDx2_strainFiberY-112Z0.txt -ele 12 section 1 fiber -111.86 0.00 strain; 
recorder Element -file $dataDir/W625SC30_Suzuki2021_lc25bfLcSurDx2_stressFiberY-144Z0.txt -ele 12 section 1 fiber -143.82 0.00 stress; 
recorder Element -file $dataDir/W625SC30_Suzuki2021_lc25bfLcSurDx2_strainFiberY-144Z0.txt -ele 12 section 1 fiber -143.82 0.00 strain; 
recorder Element -file $dataDir/W625SC30_Suzuki2021_lc25bfLcSurDx2_stressFiberY-171Z32.txt -ele 12 section 1 fiber -170.65 32.13 stress; 
recorder Element -file $dataDir/W625SC30_Suzuki2021_lc25bfLcSurDx2_strainFiberY-171Z32.txt -ele 12 section 1 fiber -170.65 32.13 strain; 


# Define display;	
#DisplayModel2D NodeNumbers 2.8 10 10  1200 800 -wipe;
#DisplayPlane "DeformedShape" 2.8 XY 0;

	
#######################################################################################
#                                                                                     #
#                              Analysis Section			                          #
#                                                                                     #
#######################################################################################

# Start timer
set startT [clock seconds]


# define GRAVITY -------------------------------------------------------------
pattern Plain 1 Linear {
   load 5 0 -1604250 0 0 0 0

}

# Gravity-analysis parameters -- load-controlled static analysis
set Tol 1.0e-6;			# convergence tolerance for test
constraints Plain;     		# how it handles boundary conditions
numberer Plain;			# renumber dof's to minimize band-width (optimization), if you want to
system  BandGeneral;		# how to store and solve the system of equations in the analysis
test RelativeNormUnbalance $Tol 20 0; 		# determine if convergence has been achieved at the end of an iteration step
algorithm Newton;			# use Newton's solution algorithm: updates tangent stiffness at every iteration
set NstepGravity 10;  		# apply gravity in 1 steps
set DGravity [expr 1./$NstepGravity]; 	# first load increment;
integrator LoadControl $DGravity;	# determine the next time step for an analysis
analysis Static;			# define type of analysis static or transient
analyze $NstepGravity;		# apply gravity
# ------------------------------------------------- maintain constant gravity loads and reset time to zero
loadConst -time 0.0

puts "Model Built"




# STATIC PUSHOVER ANALYSIS-----------------------------------------------------------------------------

puts "Running Analysis..."

# assign lateral loads and create load pattern
  set CtrlNode 4
  set CtrlDOF 1;
  pattern Plain 200 Linear {			
	 load 4 1.0 0.0 0.0 0.0 0.0 0.0;
  }
  
# analysis commands
	constraints Plain;					# how it handles boundary conditions
	numberer RCM;						# renumber dof's to minimize band-width (optimization)
	#system BandGeneral;					# how to store and solve the system of equations in the analysis (large model: try UmfPack)
	system UmfPack
	set maxNumIter 25;                # Convergence Test: maximum number of iterations that will be performed before "failure to converge" is returned
	set printFlag 0;                # Convergence Test: flag used to print information on convergence (optional)        # 1: print information on each step;
	set Tol 1.0e-8;                        # Convergence Test: tolerance	
	#test RelativeNormDispIncr $Tol $maxNumIter $printFlag;		# type of convergence criteria with tolerance, max iterations
	test EnergyIncr  $Tol $maxNumIter $printFlag;
	#algorithm NewtonLineSearch ;				# use Newton's solution algorithm: updates tangent stiffness at every iteration
	algorithm KrylovNewton 

  #C1 Run
  #set disp [list 0. 	0	0.603324413	1.206508636	1.809552789	2.412456751	3.015220404	3.617843866	4.220327377	4.82267046	5.424873352	6.026936531	6.62885952	7.230642319	7.832285881	8.433790207	9.035155296	9.636383057	10.23747349	10.83842945	11.43925953	12.03996944	12.64056778	13.24107075	13.8415041	14.44204235	15.04254913	15.6429863	16.24334526	16.8436203	17.4438076	18.04390526	18.64391327	19.2438259
#S Run
set disp [list 0. 	0	0.119417682	0.238829866	0.358236581	0.477637768	0.597033501	0.71642375	0.835808456	0.955187738	1.074561477	1.193929791	1.313292503	1.432649851	1.552001596	1.671347976	1.790688753	1.910024047	2.029353857	2.148678303	2.267997026	2.387310505	2.506618261	2.625920773	2.745217562	2.864508867	2.983794928	3.103075266	3.222350121	3.34161973	3.460883617	3.580142021	3.699394941	3.8186423

  set LoopLength [llength $disp]
  set h 1 
  
# Run the static cyclic analysis
  set NSteps 1;
  set dU1 0;
  set ok 0;
  
  puts "Analysis..."
  set tStart [clock seconds];
  while {$ok == 0 && $h < $LoopLength} {
	# List is zero index
	set index [expr $h]
	# We need to relative deformation of the loading protocol
	# Subtract dUi+1 - dUi
	set D1 [lindex $disp $index];
	set D2 [lindex $disp $index-1];
	#set dU1 [expr ($D1-$D2)*$L];
	set dU1 [expr ($D1-$D2)];
	
	# Create Nsteps from Amplitude to Amplitude
	set dU [expr ($dU1)/$NSteps]
	
	# Displacement Control Integrator
	integrator DisplacementControl $CtrlNode $CtrlDOF $dU
	analysis Static
     puts "increment = [expr {$h}] / [expr {$LoopLength}]";

	set ok [ analyze $NSteps]
	set h [expr $h + 1 ]
} 	
set tFinish [clock seconds];

	

wipe all;