###################################################################################################
#          Set Up & Source Definition									  
###################################################################################################
	wipe all;							# clear memory of past model definitions
	model BasicBuilder -ndm 3 -ndf 6;	# Define the model builder, ndm = #dimension, ndf = #dofs
	set dataDir resultsC1_Cravero2020;			# name of output folder
	file mkdir $dataDir;						# create output folder
	
	#source DisplayModel2D.tcl;
	#source DisplayPlane.tcl;

###################################################################################################
#          Define Section Properties and Elements													  
###################################################################################################
	
# define section
	set bf  257.0;										# total flange width
	set bf4MaterialLaw [expr $bf/ 2];
	set tf  21.7;										# flange thickness
	set d 363.0;										# section depth
	set rKArea 15.0;									# radius of K-Area
	set tw 13.0;										# web thickness
	set h [expr $d-2*$tf-2*$rKArea];					# Web PLATE depth for material law softening
	
	set bSurTFlange [expr $bf/(2*$tf)];
	set bSurTWeb [expr $h/$tw];
	
	set sigmaC0_Web [expr 1.2*421.2];
	set sigmaC0_Flange [expr 1.0*511.9];
	
	set alphaRegularization_Web 1.0;							# Factor for regularization web 
	set alphaRegularization_Flange 1.0;							# Factor for regularization flange
	
###################################################################################################
#          Define Subassembly Geometry									  
###################################################################################################

# define structure-geometry parameters
	set L 1825.0;      # Lenght of the column [mm]
	
###################################################################################################
#          Define Subassembly Geometry									  
###################################################################################################
	
# set up geometric transformation of elements
	set ColTransfTag 1; 			# associate a tag to column transformation
	set BeamTransfTag 2; 			# associate a tag to beam transformation
	#geomTransf Linear $ColTransfTag 0 0 -1;		# Linear transformation
	geomTransf Corotational $ColTransfTag 0 0 -1;		# Corotational transformation
	geomTransf Linear $BeamTransfTag 0 0 1;		# Linear transformation
	
###################################################################################################
#          Define Nodes & Boundary Conditions							  
###################################################################################################

# define nodes and assign masses to beam-column intersections of frame
	# command:  node nodeID xcoord ycoord 
	node 1 0.0 0.0 0.0;
	node 2 0.0 $L 0.0;
	node 3 0.0 $L 0.0;
	node 4  -791.0 $L 0.0;
	node 5 0.0 [expr $L+306.0] 0.0;
	
# Pin constraints for same nodes
	equalDOF 3 2 1 2 6; 
	
# assign boundary conditions 
	# command:  fix nodeID dxFixity dyFixity rzFixity
	# fixity values: 1 = constrained; 0 = unconstrained
	fix 1 1 1 1 1 1 1;
	fix 2 0 0 1 1 1 0;
	fix 3 0 0 1 1 1 0;
	fix 4 0 0 1 1 1 0;
	
###################################################################################################
#          Define Beam-Column Elements							  
###################################################################################################

# define fiber beam-column elements
	set E 191020.;
	set nu 0.3; 
	
	#Torsion part
	set G 	[expr $E/2.0/(1+$nu)]; # shear modulus
	set do 	[expr $d-$tf]; 			# median depth
	set J   [expr 1.0/3.0*(2*$bf*$tf**3.0 + $do*$tw**3.0)]; 		# torsional constant   
	set GJ 	[expr $G*$J];  			# torsional stiffness 
	
	#nDMaterial ElasticIsotropic 1 $E $nu
	nDMaterial LocalBucklingFlangePlate 1 191020.0 0.3 373.72 141.47 15.2 135.95 211.16 2 25621 235.12 942.18 3.16 $bf4MaterialLaw $tf $sigmaC0_Flange $alphaRegularization_Flange;
	nDMaterial LocalBucklingWebPlate 2 191020.0 0.3 373.72 141.47 15.2 135.95 211.16 2 25621 235.12 942.18 3.16 $h $tw $sigmaC0_Web $alphaRegularization_Web;
	
	set NFlange_LoadingDir 1;
	set NFlange_TranverseDir 4;
	set NWeb_LoadingDir 10;
	set NWeb_TranverseDir 1;	
	
	section NDFiberTestNonlocal 1 -GJ $GJ {;	
	#			 matTag  umSubdivY  numSubdivZ  yI  	zI  	yJ    zJ
	patch rect 1 $NFlange_LoadingDir $NFlange_TranverseDir [expr -$d/2]               [expr -$bf/2]                    [expr -($d/2-$tf)]             [expr $bf/2];	#Bottom flange
	patch rect 2 $NWeb_LoadingDir $NWeb_TranverseDir            [expr -($d/2-$tf)] [expr -$tw/2] [expr ($d/2-$tf)] [expr $tw/2];									#Web
	patch rect 1 $NFlange_LoadingDir $NFlange_TranverseDir [expr ($d/2-$tf)]             [expr -$bf/2]                    [expr $d/2]             [expr $bf/2];		#Top flange

	}

	
	#set integration "NewtonCotes 1 5"
	#element  forceBeamColumn 12 1 2 $ColTransfTag $integration -iter 30 1e-5
	#set lc [expr 0.0*$bf];
	#element gradientForceBeamColumn 12 1 2 $ColTransfTag Simpson 1 9  20 1e-6 $lc
	
	set lc [expr 1.0*$bf];
	element testNonlocalElementDH 12 1 2 $ColTransfTag Simpson 1 15  20 1e-6 $lc
	
	element elasticBeamColumn 34 3 4 11500 [expr $E*1000.0] [expr $G*1000.0] 44500000 44500000 44500000 $BeamTransfTag 
	element elasticBeamColumn 35 3 5 11500 [expr $E*1000.0] [expr $G*1000.0] 44500000 44500000 44500000 $ColTransfTag 
	
############################################################################
#              Recorders					                			   
############################################################################

puts "Recorders ..."

#lc20bfLcSurDx1
# Record displacements 
	recorder Node -file $dataDir/C1_Cravero2020_lc10bfLcSurDx2_Disp.txt -node 2 -dof 1 2 disp;
	
# Record reactions
	recorder Node -file $dataDir/C1_Cravero2020_lc10bfLcSurDx2_RBase.txt -node 1 -dof 1 2 6 reaction;
	
# Record stress and strains for fibers
recorder Element -file $dataDir/C1_Cravero2020_lc10bfLcSurDx2_stressFiberY171Z32.txt -ele 12 section 1 fiber 170.65 32.13 stress; 
recorder Element -file $dataDir/C1_Cravero2020_lc10bfLcSurDx2_strainFiberY171Z32.txt -ele 12 section 1 fiber 170.65 32.13 strain; 
recorder Element -file $dataDir/C1_Cravero2020_lc10bfLcSurDx2_stressFiberY144Z0.txt -ele 12 section 1 fiber 143.82 0.00 stress; 
recorder Element -file $dataDir/C1_Cravero2020_lc10bfLcSurDx2_strainFiberY144Z0.txt -ele 12 section 1 fiber 143.82 0.00 strain; 
recorder Element -file $dataDir/C1_Cravero2020_lc10bfLcSurDx2_stressFiberY112Z0.txt -ele 12 section 1 fiber 111.86 0.00 stress; 
recorder Element -file $dataDir/C1_Cravero2020_lc10bfLcSurDx2_strainFiberY112Z0.txt -ele 12 section 1 fiber 111.86 0.00 strain; 
recorder Element -file $dataDir/C1_Cravero2020_lc10bfLcSurDx2_stressFiberY80Z0.txt -ele 12 section 1 fiber 79.90 0.00 stress; 
recorder Element -file $dataDir/C1_Cravero2020_lc10bfLcSurDx2_strainFiberY80Z0.txt -ele 12 section 1 fiber 79.90 0.00 strain; 
recorder Element -file $dataDir/C1_Cravero2020_lc10bfLcSurDx2_stressFiberY48Z0.txt -ele 12 section 1 fiber 47.94 0.00 stress; 
recorder Element -file $dataDir/C1_Cravero2020_lc10bfLcSurDx2_strainFiberY48Z0.txt -ele 12 section 1 fiber 47.94 0.00 strain; 
recorder Element -file $dataDir/C1_Cravero2020_lc10bfLcSurDx2_stressFiberY16Z0.txt -ele 12 section 1 fiber 15.98 0.00 stress; 
recorder Element -file $dataDir/C1_Cravero2020_lc10bfLcSurDx2_strainFiberY16Z0.txt -ele 12 section 1 fiber 15.98 0.00 strain; 
recorder Element -file $dataDir/C1_Cravero2020_lc10bfLcSurDx2_stressFiberY-16Z0.txt -ele 12 section 1 fiber -15.98 0.00 stress; 
recorder Element -file $dataDir/C1_Cravero2020_lc10bfLcSurDx2_strainFiberY-16Z0.txt -ele 12 section 1 fiber -15.98 0.00 strain; 
recorder Element -file $dataDir/C1_Cravero2020_lc10bfLcSurDx2_stressFiberY-48Z0.txt -ele 12 section 1 fiber -47.94 0.00 stress; 
recorder Element -file $dataDir/C1_Cravero2020_lc10bfLcSurDx2_strainFiberY-48Z0.txt -ele 12 section 1 fiber -47.94 0.00 strain; 
recorder Element -file $dataDir/C1_Cravero2020_lc10bfLcSurDx2_stressFiberY-80Z0.txt -ele 12 section 1 fiber -79.90 0.00 stress; 
recorder Element -file $dataDir/C1_Cravero2020_lc10bfLcSurDx2_strainFiberY-80Z0.txt -ele 12 section 1 fiber -79.90 0.00 strain; 
recorder Element -file $dataDir/C1_Cravero2020_lc10bfLcSurDx2_stressFiberY-112Z0.txt -ele 12 section 1 fiber -111.86 0.00 stress; 
recorder Element -file $dataDir/C1_Cravero2020_lc10bfLcSurDx2_strainFiberY-112Z0.txt -ele 12 section 1 fiber -111.86 0.00 strain; 
recorder Element -file $dataDir/C1_Cravero2020_lc10bfLcSurDx2_stressFiberY-144Z0.txt -ele 12 section 1 fiber -143.82 0.00 stress; 
recorder Element -file $dataDir/C1_Cravero2020_lc10bfLcSurDx2_strainFiberY-144Z0.txt -ele 12 section 1 fiber -143.82 0.00 strain; 
recorder Element -file $dataDir/C1_Cravero2020_lc10bfLcSurDx2_stressFiberY-171Z32.txt -ele 12 section 1 fiber -170.65 32.13 stress; 
recorder Element -file $dataDir/C1_Cravero2020_lc10bfLcSurDx2_strainFiberY-171Z32.txt -ele 12 section 1 fiber -170.65 32.13 strain; 


# Define display;	
#DisplayModel2D NodeNumbers 2.8 10 10  1200 800 -wipe;
#DisplayPlane "DeformedShape" 2.8 XY 0;

	
#######################################################################################
#                                                                                     #
#                              Analysis Section			                          #
#                                                                                     #
#######################################################################################

# Start timer
set startT [clock seconds]


# define GRAVITY -------------------------------------------------------------
pattern Plain 1 Linear {
   load 5 0 -1604250 0 0 0 0

}

# Gravity-analysis parameters -- load-controlled static analysis
set Tol 1.0e-6;			# convergence tolerance for test
constraints Plain;     		# how it handles boundary conditions
numberer Plain;			# renumber dof's to minimize band-width (optimization), if you want to
system  BandGeneral;		# how to store and solve the system of equations in the analysis
test RelativeNormUnbalance $Tol 20 0; 		# determine if convergence has been achieved at the end of an iteration step
algorithm Newton;			# use Newton's solution algorithm: updates tangent stiffness at every iteration
set NstepGravity 10;  		# apply gravity in 1 steps
set DGravity [expr 1./$NstepGravity]; 	# first load increment;
integrator LoadControl $DGravity;	# determine the next time step for an analysis
analysis Static;			# define type of analysis static or transient
analyze $NstepGravity;		# apply gravity
# ------------------------------------------------- maintain constant gravity loads and reset time to zero
loadConst -time 0.0

puts "Model Built"




# STATIC PUSHOVER ANALYSIS-----------------------------------------------------------------------------

puts "Running Analysis..."

# assign lateral loads and create load pattern
  set CtrlNode 4
  set CtrlDOF 1;
  pattern Plain 200 Linear {			
	 load 4 1.0 0.0 0.0 0.0 0.0 0.0;
  }
  
# analysis commands
	constraints Plain;					# how it handles boundary conditions
	numberer RCM;						# renumber dof's to minimize band-width (optimization)
	system BandGeneral;					# how to store and solve the system of equations in the analysis (large model: try UmfPack)
	#system UmfPack
	set maxNumIter 25;                # Convergence Test: maximum number of iterations that will be performed before "failure to converge" is returned
	set printFlag 0;                # Convergence Test: flag used to print information on convergence (optional)        # 1: print information on each step;
	set Tol 1.0e-6;                        # Convergence Test: tolerance	
	#test RelativeNormUnbalance  $Tol $maxNumIter $printFlag;		# type of convergence criteria with tolerance, max iterations
	test EnergyIncr  $Tol $maxNumIter $printFlag;
	#algorithm NewtonLineSearch;					# use Newton's solution algorithm: updates tangent stiffness at every iteration
	algorithm KrylovNewton 

  #Monotonic Run
  set disp [list 0. 	0	0.475961357	0.951845407	1.427652121	1.903381586	2.379033804	2.854608536	3.33010602	3.805526257	4.280869007	4.75613451	5.231322765	5.70643425	6.18146801	6.656424522	7.131303787	7.606106281	8.080831528	8.555480003	9.030053139	9.504549026	9.978969574	10.45331383	10.92758656	11.40179062	11.87592793	12.35000134	12.82401943	13.29798508	13.77191448	14.24590397	14.71990395	15.193870

  set LoopLength [llength $disp]
  set h 1 
  
# Run the static cyclic analysis
  set NSteps 1;
  set dU1 0;
  set ok 0;
  
  puts "Analysis..."
  set tStart [clock seconds];
  while {$ok == 0 && $h < $LoopLength} {
	# List is zero index
	set index [expr $h]
	# We need to relative deformation of the loading protocol
	# Subtract dUi+1 - dUi
	set D1 [lindex $disp $index];
	set D2 [lindex $disp $index-1];
	#set dU1 [expr ($D1-$D2)*$L];
	set dU1 [expr ($D1-$D2)];
	
	# Create Nsteps from Amplitude to Amplitude
	set dU [expr ($dU1)/$NSteps]
	
	# Displacement Control Integrator
	integrator DisplacementControl $CtrlNode $CtrlDOF $dU
	analysis Static
     puts "increment = [expr {$h}] / [expr {$LoopLength}]";

	set ok [ analyze $NSteps]
	set h [expr $h + 1 ]
} 	
set tFinish [clock seconds];

puts "Duration Process: [expr $tFinish - $tStart]"; 

	

wipe all;