###################################################################################################
#          Set Up & Source Definition									  
###################################################################################################
	wipe all;							# clear memory of past model definitions
	model BasicBuilder -ndm 3 -ndf 6;	# Define the model builder, ndm = #dimension, ndf = #dofs
	set dataDir resultsW634_Suzuki2021;			# name of output folder
	file mkdir $dataDir;						# create output folder

	#source DisplayModel2D.tcl;
	#source DisplayPlane.tcl;

###################################################################################################
#          Define Section Properties and Elements													  
###################################################################################################
	
# define section
	set bf  205.0;										# total flange width
	set bf4MaterialLaw [expr $bf/ 2];
	set tf  16.8;										# flange thickness
	set d 353.0;										# section depth
	set rKArea 15.0;									# radius of K-Area
	set tw 9.4;										# web thickness
	set h [expr $d-2*$tf-2*$rKArea];					# Web PLATE depth for material law softening
	
	set bSurTFlange [expr $bf/(2*$tf)];
	set bSurTWeb [expr $h/$tw];
	
	#set sigmaC0_Web [expr 1.0*360.0]; #using regression values
	set sigmaC0_Web [expr 1.0*370]; #using plate value
	set sigmaC0_Flange [expr 1.0*505.0];
	
	set alphaRegularization_Web 1.0;							# Factor for regularization web 
	set alphaRegularization_Flange 1.0;							# Factor for regularization flange
	
###################################################################################################
#          Define Subassembly Geometry									  
###################################################################################################

# define structure-geometry parameters
	set L 1825.0;      # Lenght of the column [mm]
	
###################################################################################################
#          Define Subassembly Geometry									  
###################################################################################################
	
# set up geometric transformation of elements
	set ColTransfTag 1; 			# associate a tag to column transformation
	set BeamTransfTag 2; 			# associate a tag to beam transformation
	#geomTransf Linear $ColTransfTag 0 0 -1;		# Linear transformation
	geomTransf Corotational $ColTransfTag 0 0 -1;		# Corotational transformation
	geomTransf Linear $BeamTransfTag 0 0 1;		# Linear transformation
	
###################################################################################################
#          Define Nodes & Boundary Conditions							  
###################################################################################################

# define nodes and assign masses to beam-column intersections of frame
	# command:  node nodeID xcoord ycoord 
	node 1 0.0 0.0 0.0;
	node 2 0.0 $L 0.0;
	node 3 0.0 $L 0.0;
	node 4  -791.0 $L 0.0;
	node 5 0.0 [expr $L+306.0] 0.0;
	
# Pin constraints for same nodes
	equalDOF 3 2 1 2 6; 
	
# assign boundary conditions 
	# command:  fix nodeID dxFixity dyFixity rzFixity
	# fixity values: 1 = constrained; 0 = unconstrained
	fix 1 1 1 1 1 1 1;
	fix 2 0 0 1 1 1 0;
	fix 3 0 0 1 1 1 0;
	fix 4 0 0 1 1 1 0;
	
###################################################################################################
#          Define Beam-Column Elements							  
###################################################################################################

# define fiber beam-column elements
	set E 191020.;
	set nu 0.3; 
	
	#Torsion part
	set G 	[expr $E/2.0/(1+$nu)]; # shear modulus
	set do 	[expr $d-$tf]; 			# median depth
	set J   [expr 1.0/3.0*(2*$bf*$tf**3.0 + $do*$tw**3.0)]; 		# torsional constant   
	set GJ 	[expr $G*$J];  			# torsional stiffness 
	
	#nDMaterial ElasticIsotropic 1 $E $nu
	nDMaterial LocalBucklingFlangePlate 1 191020.0 0.3 373.72 141.47 15.2 135.95 211.16 2 25621 235.12 942.18 3.16 $bf4MaterialLaw $tf $sigmaC0_Flange $alphaRegularization_Flange;
	nDMaterial LocalBucklingWebPlate 2 191020.0 0.3 373.72 141.47 15.2 135.95 211.16 2 25621 235.12 942.18 3.16 $h $tw $sigmaC0_Web $alphaRegularization_Web;
	
	set NFlange_LoadingDir 1;
	set NFlange_TranverseDir 4;
	set NWeb_LoadingDir 10;
	set NWeb_TranverseDir 1;	
	
	section NDFiber 1 -GJ $GJ {;	
	#			 matTag  umSubdivY  numSubdivZ  yI  	zI  	yJ    zJ
	patch rect 1 $NFlange_LoadingDir $NFlange_TranverseDir [expr -$d/2]               [expr -$bf/2]                    [expr -($d/2-$tf)]             [expr $bf/2];	#Bottom flange
	patch rect 2 $NWeb_LoadingDir $NWeb_TranverseDir            [expr -($d/2-$tf)] [expr -$tw/2] [expr ($d/2-$tf)] [expr $tw/2];									#Web
	patch rect 1 $NFlange_LoadingDir $NFlange_TranverseDir [expr ($d/2-$tf)]             [expr -$bf/2]                    [expr $d/2]             [expr $bf/2];		#Top flange

	}

	
	#set integration "NewtonCotes 1 5"
	#element  forceBeamColumn 12 1 2 $ColTransfTag $integration -iter 30 1e-5
	set lc [expr 1.0*$bf];
	element gradientForceBeamColumn 12 1 2 $ColTransfTag Simpson 1 19  20 1e-6 $lc
	
	element elasticBeamColumn 34 3 4 11500 [expr $E*1000.0] [expr $G*1000.0] 44500000 44500000 44500000 $BeamTransfTag 
	element elasticBeamColumn 35 3 5 11500 [expr $E*1000.0] [expr $G*1000.0] 44500000 44500000 44500000 $ColTransfTag 
	
############################################################################
#              Recorders					                			   
############################################################################

puts "Recorders ..."

# Record displacements 
	recorder Node -file $dataDir/W634SC30_Suzuki2021_lc10bfLcSurDx2_Disp.txt -node 2 -dof 1 2 disp;
	
# Record reactions
	recorder Node -file $dataDir/W634SC30_Suzuki2021_lc10bfLcSurDx2_RBase.txt -node 1 -dof 1 2 6 reaction;
	
# Record stress and strains for fibers
#recorder Element -file $dataDir/W634SC30_Suzuki2021_lc10bfLcSurDx2_strainFiberExtremePos.txt -ele 12 section 1 fiber 168.1 25.63 strain; 
#recorder Element -file $dataDir/W634SC30_Suzuki2021_lc10bfLcSurDx2_stressFiberExtremePos.txt -ele 12 section 1 fiber 168.1 25.63 stress;
#recorder Element -file $dataDir/W634SC30_Suzuki2021_lc10bfLcSurDx2_strainFiberExtremeNeg.txt -ele 12 section 1 fiber -168.1 25.63 strain;
#recorder Element -file $dataDir/W634SC30_Suzuki2021_lc10bfLcSurDx2_stressFiberExtremeNeg.txt -ele 12 section 1 fiber -168.1 25.63 stress;

# Define display;	
#DisplayModel2D NodeNumbers 1.0 10 10  1200 800 -wipe;
#DisplayPlane "DeformedShape" 1.0 XY 0;

	
#######################################################################################
#                                                                                     #
#                              Analysis Section			                          #
#                                                                                     #
#######################################################################################

# Start timer
set startT [clock seconds]


# define GRAVITY -------------------------------------------------------------
pattern Plain 1 Linear {
   #load 5 0 -1045350 0 0 0 0
   load 5 0 -1000000 0 0 0 0

}

# Gravity-analysis parameters -- load-controlled static analysis
set Tol 1.0e-6;			# convergence tolerance for test
constraints Plain;     		# how it handles boundary conditions
numberer Plain;			# renumber dof's to minimize band-width (optimization), if you want to
system  BandGeneral;		# how to store and solve the system of equations in the analysis
test RelativeNormUnbalance $Tol 20 0; 		# determine if convergence has been achieved at the end of an iteration step
algorithm Newton;			# use Newton's solution algorithm: updates tangent stiffness at every iteration
set NstepGravity 10;  		# apply gravity in 1 steps
set DGravity [expr 1./$NstepGravity]; 	# first load increment;
integrator LoadControl $DGravity;	# determine the next time step for an analysis
analysis Static;			# define type of analysis static or transient
analyze $NstepGravity;		# apply gravity
# ------------------------------------------------- maintain constant gravity loads and reset time to zero
loadConst -time 0.0

puts "Model Built"




# STATIC PUSHOVER ANALYSIS-----------------------------------------------------------------------------

puts "Running Analysis..."

# assign lateral loads and create load pattern
  set CtrlNode 2
  set CtrlDOF 1;
  pattern Plain 200 Linear {			
	 load 4 1.0 0.0 0.0 0.0 0.0 0.0;
  }
  
# analysis commands
	constraints Plain;					# how it handles boundary conditions
	numberer RCM;						# renumber dof's to minimize band-width (optimization)
	#system BandGeneral;					# how to store and solve the system of equations in the analysis (large model: try UmfPack)
	system UmfPack
	set maxNumIter 100;                # Convergence Test: maximum number of iterations that will be performed before "failure to converge" is returned
	set printFlag 0;                # Convergence Test: flag used to print information on convergence (optional)        # 1: print information on each step;
	set Tol 1.0e-8;                        # Convergence Test: tolerance	
	#test RelativeNormUnbalance  $Tol $maxNumIter $printFlag;		# type of convergence criteria with tolerance, max iterations
	test EnergyIncr  $Tol $maxNumIter $printFlag;
	#algorithm NewtonLineSearch ;					# use Newton's solution algorithm: updates tangent stiffness at every iteration
	algorithm KrylovNewton 

  #C1
  #set disp [list 0. 0	0.491049349	0.981999755	1.472851276	1.963603854	2.454257488	2.944812059	3.435267925	3.925624609	4.415882587	4.906041622	5.396101475	5.886062622	6.375925064	6.865689278	7.355354309	7.844920635	8.334388733	8.823758125	9.313030243	9.802206993	10.29128647	10.78027153	11.2691679	11.75797749	12.24670601	12.73535633	13.22394276	13.71247578	14.20108414	14.6897316	15.17834187	15.6669
	#C2
	#set disp [list 0. 	0	-0.524704278	-1.049521446	-1.574451566	-2.099494457	-2.624650478	-3.149919271	-3.675300837	-4.20079565	-4.726403236	-5.252123356	-5.777956486	-6.303902626	-6.829960823	-7.35613203	-7.882415771	-8.408811569	-8.935319901	-9.461938858	-9.988666534	-10.51550579	-11.04244804	-11.56949043	-12.09662819	-12.62385559	-13.15116024	-13.67852592	-14.20581055	-14.7330637	-15.26036167	-15
#S
set disp [list 0. 	0.	0.143851385	0.287694275	0.431528687	0.575354576	0.719172001	0.862980962	1.006781459	1.150573373	1.294356823	1.438131809	1.581898332	1.725656271	1.869405866	2.013146877	2.156879425	2.30060339	2.44431901	2.588026047	2.731724739	2.875414848	3.019096375	3.162769556	3.306434155	3.45009017	3.593737841	3.737376928	3.881007671	4.02463007	4.168243408	4.31184864	4.45544529	4.599033833	

  set LoopLength [llength $disp]
  set h 1 
  
# Run the static cyclic analysis
  set NSteps 1;
  set dU1 0;
  set ok 0;
  
  puts "Analysis..."
  set tStart [clock seconds];
  while {$ok == 0 && $h < $LoopLength} {
	# List is zero index
	set index [expr $h]
	# We need to relative deformation of the loading protocol
	# Subtract dUi+1 - dUi
	set D1 [lindex $disp $index];
	set D2 [lindex $disp $index-1];
	#set dU1 [expr ($D1-$D2)*$L];
	set dU1 [expr ($D1-$D2)];
	
	# Create Nsteps from Amplitude to Amplitude
	set dU [expr ($dU1)/$NSteps]
	
	# Displacement Control Integrator
	integrator DisplacementControl $CtrlNode $CtrlDOF $dU
	analysis Static
     puts "increment = [expr {$h}] / [expr {$LoopLength}]";

	set ok [ analyze $NSteps]
	set h [expr $h + 1 ]
} 	
set tFinish [clock seconds];


puts "Duration Process: [expr $tFinish - $tStart]"; 


	

wipe all;